[General]
network = src.dtnsim										
repeat = 1
allow-object-stealing-on-deletion = true

# Simulation end time
sim-time-limit = 50s

# Nodes quantity (identifiers (EiDs) matches their index, EiD=0 is ignored)			
dtnsim.nodesNumber = 50
dtnsim.node[1..50].icon = "satellite"

# Mobility
dtnsim.node[*].hasMobility = true
dtnsim.node[*].noradModule.satIndex = parentIndex()
dtnsim.node[*].noradModule.satName = "sat"
**.updateInterval = 20s
**.numOfSats = 50
sim-time-limit = 48h
**.satsPerPlane = 1
**.numOfPlanes = 50
**.incl = 53.2
**.alt = 540
**.loadFiles = false
**.dataRate = 100Mbps
**.queueSize = 300

dtnsim.node[*].dtn.routing = "antop"
dtnsim.node[*].dtn.printRoutingDebug = true

# --- Random Traffic Configuration ---
# Node 1 -> Node 28
dtnsim.node[1].app.enable = true
dtnsim.node[1].app.bundlesNumber = "1"
dtnsim.node[1].app.start = "16"
dtnsim.node[1].app.destinationEid = "28"
dtnsim.node[1].app.size = "500"
# Node 1 -> Node 35
dtnsim.node[1].app.enable = true
dtnsim.node[1].app.bundlesNumber = "1"
dtnsim.node[1].app.start = "14"
dtnsim.node[1].app.destinationEid = "35"
dtnsim.node[1].app.size = "100"
# Node 2 -> Node 46
dtnsim.node[2].app.enable = true
dtnsim.node[2].app.bundlesNumber = "1"
dtnsim.node[2].app.start = "1"
dtnsim.node[2].app.destinationEid = "46"
dtnsim.node[2].app.size = "200"
# Node 2 -> Node 29
dtnsim.node[2].app.enable = true
dtnsim.node[2].app.bundlesNumber = "1"
dtnsim.node[2].app.start = "10"
dtnsim.node[2].app.destinationEid = "29"
dtnsim.node[2].app.size = "500"
# Node 3 -> Node 4
dtnsim.node[3].app.enable = true
dtnsim.node[3].app.bundlesNumber = "1"
dtnsim.node[3].app.start = "20"
dtnsim.node[3].app.destinationEid = "4"
dtnsim.node[3].app.size = "100"
# Node 3 -> Node 15
dtnsim.node[3].app.enable = true
dtnsim.node[3].app.bundlesNumber = "1"
dtnsim.node[3].app.start = "4"
dtnsim.node[3].app.destinationEid = "15"
dtnsim.node[3].app.size = "500"
# Node 4 -> Node 37
dtnsim.node[4].app.enable = true
dtnsim.node[4].app.bundlesNumber = "1"
dtnsim.node[4].app.start = "3"
dtnsim.node[4].app.destinationEid = "37"
dtnsim.node[4].app.size = "200"
# Node 4 -> Node 18
dtnsim.node[4].app.enable = true
dtnsim.node[4].app.bundlesNumber = "1"
dtnsim.node[4].app.start = "5"
dtnsim.node[4].app.destinationEid = "18"
dtnsim.node[4].app.size = "100"
# Node 4 -> Node 24
dtnsim.node[4].app.enable = true
dtnsim.node[4].app.bundlesNumber = "1"
dtnsim.node[4].app.start = "2"
dtnsim.node[4].app.destinationEid = "24"
dtnsim.node[4].app.size = "200"
# Node 4 -> Node 44
dtnsim.node[4].app.enable = true
dtnsim.node[4].app.bundlesNumber = "1"
dtnsim.node[4].app.start = "11"
dtnsim.node[4].app.destinationEid = "44"
dtnsim.node[4].app.size = "50"
# Node 4 -> Node 29
dtnsim.node[4].app.enable = true
dtnsim.node[4].app.bundlesNumber = "1"
dtnsim.node[4].app.start = "8"
dtnsim.node[4].app.destinationEid = "29"
dtnsim.node[4].app.size = "50"
# Node 5 -> Node 47
dtnsim.node[5].app.enable = true
dtnsim.node[5].app.bundlesNumber = "1"
dtnsim.node[5].app.start = "3"
dtnsim.node[5].app.destinationEid = "47"
dtnsim.node[5].app.size = "500"
# Node 6 -> Node 7
dtnsim.node[6].app.enable = true
dtnsim.node[6].app.bundlesNumber = "1"
dtnsim.node[6].app.start = "19"
dtnsim.node[6].app.destinationEid = "7"
dtnsim.node[6].app.size = "100"
# Node 6 -> Node 30
dtnsim.node[6].app.enable = true
dtnsim.node[6].app.bundlesNumber = "1"
dtnsim.node[6].app.start = "9"
dtnsim.node[6].app.destinationEid = "30"
dtnsim.node[6].app.size = "100"
# Node 6 -> Node 21
dtnsim.node[6].app.enable = true
dtnsim.node[6].app.bundlesNumber = "1"
dtnsim.node[6].app.start = "7"
dtnsim.node[6].app.destinationEid = "21"
dtnsim.node[6].app.size = "200"
# Node 7 -> Node 49
dtnsim.node[7].app.enable = true
dtnsim.node[7].app.bundlesNumber = "1"
dtnsim.node[7].app.start = "7"
dtnsim.node[7].app.destinationEid = "49"
dtnsim.node[7].app.size = "100"
# Node 7 -> Node 32
dtnsim.node[7].app.enable = true
dtnsim.node[7].app.bundlesNumber = "1"
dtnsim.node[7].app.start = "5"
dtnsim.node[7].app.destinationEid = "32"
dtnsim.node[7].app.size = "100"
# Node 7 -> Node 49
dtnsim.node[7].app.enable = true
dtnsim.node[7].app.bundlesNumber = "1"
dtnsim.node[7].app.start = "1"
dtnsim.node[7].app.destinationEid = "49"
dtnsim.node[7].app.size = "200"
# Node 8 -> Node 37
dtnsim.node[8].app.enable = true
dtnsim.node[8].app.bundlesNumber = "1"
dtnsim.node[8].app.start = "5"
dtnsim.node[8].app.destinationEid = "37"
dtnsim.node[8].app.size = "50"
# Node 8 -> Node 19
dtnsim.node[8].app.enable = true
dtnsim.node[8].app.bundlesNumber = "1"
dtnsim.node[8].app.start = "8"
dtnsim.node[8].app.destinationEid = "19"
dtnsim.node[8].app.size = "200"
# Node 8 -> Node 22
dtnsim.node[8].app.enable = true
dtnsim.node[8].app.bundlesNumber = "1"
dtnsim.node[8].app.start = "5"
dtnsim.node[8].app.destinationEid = "22"
dtnsim.node[8].app.size = "50"
# Node 9 -> Node 3
dtnsim.node[9].app.enable = true
dtnsim.node[9].app.bundlesNumber = "1"
dtnsim.node[9].app.start = "10"
dtnsim.node[9].app.destinationEid = "3"
dtnsim.node[9].app.size = "100"
# Node 10 -> Node 2
dtnsim.node[10].app.enable = true
dtnsim.node[10].app.bundlesNumber = "1"
dtnsim.node[10].app.start = "3"
dtnsim.node[10].app.destinationEid = "2"
dtnsim.node[10].app.size = "100"
# Node 10 -> Node 33
dtnsim.node[10].app.enable = true
dtnsim.node[10].app.bundlesNumber = "1"
dtnsim.node[10].app.start = "17"
dtnsim.node[10].app.destinationEid = "33"
dtnsim.node[10].app.size = "100"
# Node 10 -> Node 32
dtnsim.node[10].app.enable = true
dtnsim.node[10].app.bundlesNumber = "1"
dtnsim.node[10].app.start = "8"
dtnsim.node[10].app.destinationEid = "32"
dtnsim.node[10].app.size = "200"
# Node 11 -> Node 29
dtnsim.node[11].app.enable = true
dtnsim.node[11].app.bundlesNumber = "1"
dtnsim.node[11].app.start = "3"
dtnsim.node[11].app.destinationEid = "29"
dtnsim.node[11].app.size = "50"
# Node 11 -> Node 41
dtnsim.node[11].app.enable = true
dtnsim.node[11].app.bundlesNumber = "1"
dtnsim.node[11].app.start = "3"
dtnsim.node[11].app.destinationEid = "41"
dtnsim.node[11].app.size = "100"
# Node 12 -> Node 22
dtnsim.node[12].app.enable = true
dtnsim.node[12].app.bundlesNumber = "1"
dtnsim.node[12].app.start = "15"
dtnsim.node[12].app.destinationEid = "22"
dtnsim.node[12].app.size = "500"
# Node 12 -> Node 13
dtnsim.node[12].app.enable = true
dtnsim.node[12].app.bundlesNumber = "1"
dtnsim.node[12].app.start = "13"
dtnsim.node[12].app.destinationEid = "13"
dtnsim.node[12].app.size = "500"
# Node 12 -> Node 35
dtnsim.node[12].app.enable = true
dtnsim.node[12].app.bundlesNumber = "1"
dtnsim.node[12].app.start = "18"
dtnsim.node[12].app.destinationEid = "35"
dtnsim.node[12].app.size = "500"
# Node 12 -> Node 32
dtnsim.node[12].app.enable = true
dtnsim.node[12].app.bundlesNumber = "1"
dtnsim.node[12].app.start = "19"
dtnsim.node[12].app.destinationEid = "32"
dtnsim.node[12].app.size = "100"
# Node 12 -> Node 19
dtnsim.node[12].app.enable = true
dtnsim.node[12].app.bundlesNumber = "1"
dtnsim.node[12].app.start = "3"
dtnsim.node[12].app.destinationEid = "19"
dtnsim.node[12].app.size = "100"
# Node 13 -> Node 35
dtnsim.node[13].app.enable = true
dtnsim.node[13].app.bundlesNumber = "1"
dtnsim.node[13].app.start = "19"
dtnsim.node[13].app.destinationEid = "35"
dtnsim.node[13].app.size = "500"
# Node 13 -> Node 16
dtnsim.node[13].app.enable = true
dtnsim.node[13].app.bundlesNumber = "1"
dtnsim.node[13].app.start = "3"
dtnsim.node[13].app.destinationEid = "16"
dtnsim.node[13].app.size = "200"
# Node 13 -> Node 32
dtnsim.node[13].app.enable = true
dtnsim.node[13].app.bundlesNumber = "1"
dtnsim.node[13].app.start = "14"
dtnsim.node[13].app.destinationEid = "32"
dtnsim.node[13].app.size = "500"
# Node 13 -> Node 50
dtnsim.node[13].app.enable = true
dtnsim.node[13].app.bundlesNumber = "1"
dtnsim.node[13].app.start = "7"
dtnsim.node[13].app.destinationEid = "50"
dtnsim.node[13].app.size = "50"
# Node 13 -> Node 7
dtnsim.node[13].app.enable = true
dtnsim.node[13].app.bundlesNumber = "1"
dtnsim.node[13].app.start = "20"
dtnsim.node[13].app.destinationEid = "7"
dtnsim.node[13].app.size = "200"
# Node 14 -> Node 10
dtnsim.node[14].app.enable = true
dtnsim.node[14].app.bundlesNumber = "1"
dtnsim.node[14].app.start = "19"
dtnsim.node[14].app.destinationEid = "10"
dtnsim.node[14].app.size = "50"
# Node 14 -> Node 47
dtnsim.node[14].app.enable = true
dtnsim.node[14].app.bundlesNumber = "1"
dtnsim.node[14].app.start = "1"
dtnsim.node[14].app.destinationEid = "47"
dtnsim.node[14].app.size = "100"
# Node 14 -> Node 20
dtnsim.node[14].app.enable = true
dtnsim.node[14].app.bundlesNumber = "1"
dtnsim.node[14].app.start = "9"
dtnsim.node[14].app.destinationEid = "20"
dtnsim.node[14].app.size = "50"
# Node 14 -> Node 42
dtnsim.node[14].app.enable = true
dtnsim.node[14].app.bundlesNumber = "1"
dtnsim.node[14].app.start = "4"
dtnsim.node[14].app.destinationEid = "42"
dtnsim.node[14].app.size = "50"
# Node 15 -> Node 39
dtnsim.node[15].app.enable = true
dtnsim.node[15].app.bundlesNumber = "1"
dtnsim.node[15].app.start = "4"
dtnsim.node[15].app.destinationEid = "39"
dtnsim.node[15].app.size = "100"
# Node 15 -> Node 7
dtnsim.node[15].app.enable = true
dtnsim.node[15].app.bundlesNumber = "1"
dtnsim.node[15].app.start = "18"
dtnsim.node[15].app.destinationEid = "7"
dtnsim.node[15].app.size = "200"
# Node 15 -> Node 35
dtnsim.node[15].app.enable = true
dtnsim.node[15].app.bundlesNumber = "1"
dtnsim.node[15].app.start = "9"
dtnsim.node[15].app.destinationEid = "35"
dtnsim.node[15].app.size = "100"
# Node 15 -> Node 3
dtnsim.node[15].app.enable = true
dtnsim.node[15].app.bundlesNumber = "1"
dtnsim.node[15].app.start = "11"
dtnsim.node[15].app.destinationEid = "3"
dtnsim.node[15].app.size = "100"
# Node 15 -> Node 33
dtnsim.node[15].app.enable = true
dtnsim.node[15].app.bundlesNumber = "1"
dtnsim.node[15].app.start = "3"
dtnsim.node[15].app.destinationEid = "33"
dtnsim.node[15].app.size = "50"
# Node 16 -> Node 35
dtnsim.node[16].app.enable = true
dtnsim.node[16].app.bundlesNumber = "1"
dtnsim.node[16].app.start = "20"
dtnsim.node[16].app.destinationEid = "35"
dtnsim.node[16].app.size = "100"
# Node 16 -> Node 14
dtnsim.node[16].app.enable = true
dtnsim.node[16].app.bundlesNumber = "1"
dtnsim.node[16].app.start = "5"
dtnsim.node[16].app.destinationEid = "14"
dtnsim.node[16].app.size = "100"
# Node 16 -> Node 30
dtnsim.node[16].app.enable = true
dtnsim.node[16].app.bundlesNumber = "1"
dtnsim.node[16].app.start = "16"
dtnsim.node[16].app.destinationEid = "30"
dtnsim.node[16].app.size = "500"
# Node 16 -> Node 34
dtnsim.node[16].app.enable = true
dtnsim.node[16].app.bundlesNumber = "1"
dtnsim.node[16].app.start = "9"
dtnsim.node[16].app.destinationEid = "34"
dtnsim.node[16].app.size = "100"
# Node 16 -> Node 24
dtnsim.node[16].app.enable = true
dtnsim.node[16].app.bundlesNumber = "1"
dtnsim.node[16].app.start = "5"
dtnsim.node[16].app.destinationEid = "24"
dtnsim.node[16].app.size = "200"
# Node 17 -> Node 11
dtnsim.node[17].app.enable = true
dtnsim.node[17].app.bundlesNumber = "1"
dtnsim.node[17].app.start = "7"
dtnsim.node[17].app.destinationEid = "11"
dtnsim.node[17].app.size = "50"
# Node 17 -> Node 7
dtnsim.node[17].app.enable = true
dtnsim.node[17].app.bundlesNumber = "1"
dtnsim.node[17].app.start = "9"
dtnsim.node[17].app.destinationEid = "7"
dtnsim.node[17].app.size = "100"
# Node 17 -> Node 35
dtnsim.node[17].app.enable = true
dtnsim.node[17].app.bundlesNumber = "1"
dtnsim.node[17].app.start = "18"
dtnsim.node[17].app.destinationEid = "35"
dtnsim.node[17].app.size = "50"
# Node 17 -> Node 9
dtnsim.node[17].app.enable = true
dtnsim.node[17].app.bundlesNumber = "1"
dtnsim.node[17].app.start = "5"
dtnsim.node[17].app.destinationEid = "9"
dtnsim.node[17].app.size = "50"
# Node 17 -> Node 13
dtnsim.node[17].app.enable = true
dtnsim.node[17].app.bundlesNumber = "1"
dtnsim.node[17].app.start = "12"
dtnsim.node[17].app.destinationEid = "13"
dtnsim.node[17].app.size = "200"
# Node 18 -> Node 4
dtnsim.node[18].app.enable = true
dtnsim.node[18].app.bundlesNumber = "1"
dtnsim.node[18].app.start = "17"
dtnsim.node[18].app.destinationEid = "4"
dtnsim.node[18].app.size = "100"
# Node 18 -> Node 45
dtnsim.node[18].app.enable = true
dtnsim.node[18].app.bundlesNumber = "1"
dtnsim.node[18].app.start = "6"
dtnsim.node[18].app.destinationEid = "45"
dtnsim.node[18].app.size = "100"
# Node 19 -> Node 9
dtnsim.node[19].app.enable = true
dtnsim.node[19].app.bundlesNumber = "1"
dtnsim.node[19].app.start = "6"
dtnsim.node[19].app.destinationEid = "9"
dtnsim.node[19].app.size = "100"
# Node 19 -> Node 9
dtnsim.node[19].app.enable = true
dtnsim.node[19].app.bundlesNumber = "1"
dtnsim.node[19].app.start = "17"
dtnsim.node[19].app.destinationEid = "9"
dtnsim.node[19].app.size = "500"
# Node 19 -> Node 43
dtnsim.node[19].app.enable = true
dtnsim.node[19].app.bundlesNumber = "1"
dtnsim.node[19].app.start = "6"
dtnsim.node[19].app.destinationEid = "43"
dtnsim.node[19].app.size = "500"
# Node 19 -> Node 38
dtnsim.node[19].app.enable = true
dtnsim.node[19].app.bundlesNumber = "1"
dtnsim.node[19].app.start = "5"
dtnsim.node[19].app.destinationEid = "38"
dtnsim.node[19].app.size = "100"
# Node 20 -> Node 16
dtnsim.node[20].app.enable = true
dtnsim.node[20].app.bundlesNumber = "1"
dtnsim.node[20].app.start = "11"
dtnsim.node[20].app.destinationEid = "16"
dtnsim.node[20].app.size = "100"
# Node 20 -> Node 3
dtnsim.node[20].app.enable = true
dtnsim.node[20].app.bundlesNumber = "1"
dtnsim.node[20].app.start = "4"
dtnsim.node[20].app.destinationEid = "3"
dtnsim.node[20].app.size = "200"
# Node 20 -> Node 35
dtnsim.node[20].app.enable = true
dtnsim.node[20].app.bundlesNumber = "1"
dtnsim.node[20].app.start = "5"
dtnsim.node[20].app.destinationEid = "35"
dtnsim.node[20].app.size = "500"
# Node 20 -> Node 44
dtnsim.node[20].app.enable = true
dtnsim.node[20].app.bundlesNumber = "1"
dtnsim.node[20].app.start = "18"
dtnsim.node[20].app.destinationEid = "44"
dtnsim.node[20].app.size = "100"
# Node 21 -> Node 32
dtnsim.node[21].app.enable = true
dtnsim.node[21].app.bundlesNumber = "1"
dtnsim.node[21].app.start = "10"
dtnsim.node[21].app.destinationEid = "32"
dtnsim.node[21].app.size = "50"
# Node 21 -> Node 48
dtnsim.node[21].app.enable = true
dtnsim.node[21].app.bundlesNumber = "1"
dtnsim.node[21].app.start = "15"
dtnsim.node[21].app.destinationEid = "48"
dtnsim.node[21].app.size = "100"
# Node 21 -> Node 40
dtnsim.node[21].app.enable = true
dtnsim.node[21].app.bundlesNumber = "1"
dtnsim.node[21].app.start = "2"
dtnsim.node[21].app.destinationEid = "40"
dtnsim.node[21].app.size = "200"
# Node 21 -> Node 16
dtnsim.node[21].app.enable = true
dtnsim.node[21].app.bundlesNumber = "1"
dtnsim.node[21].app.start = "3"
dtnsim.node[21].app.destinationEid = "16"
dtnsim.node[21].app.size = "100"
# Node 21 -> Node 19
dtnsim.node[21].app.enable = true
dtnsim.node[21].app.bundlesNumber = "1"
dtnsim.node[21].app.start = "6"
dtnsim.node[21].app.destinationEid = "19"
dtnsim.node[21].app.size = "200"
# Node 22 -> Node 13
dtnsim.node[22].app.enable = true
dtnsim.node[22].app.bundlesNumber = "1"
dtnsim.node[22].app.start = "7"
dtnsim.node[22].app.destinationEid = "13"
dtnsim.node[22].app.size = "100"
# Node 23 -> Node 37
dtnsim.node[23].app.enable = true
dtnsim.node[23].app.bundlesNumber = "1"
dtnsim.node[23].app.start = "10"
dtnsim.node[23].app.destinationEid = "37"
dtnsim.node[23].app.size = "500"
# Node 24 -> Node 3
dtnsim.node[24].app.enable = true
dtnsim.node[24].app.bundlesNumber = "1"
dtnsim.node[24].app.start = "9"
dtnsim.node[24].app.destinationEid = "3"
dtnsim.node[24].app.size = "500"
# Node 24 -> Node 37
dtnsim.node[24].app.enable = true
dtnsim.node[24].app.bundlesNumber = "1"
dtnsim.node[24].app.start = "8"
dtnsim.node[24].app.destinationEid = "37"
dtnsim.node[24].app.size = "500"
# Node 24 -> Node 27
dtnsim.node[24].app.enable = true
dtnsim.node[24].app.bundlesNumber = "1"
dtnsim.node[24].app.start = "2"
dtnsim.node[24].app.destinationEid = "27"
dtnsim.node[24].app.size = "500"
# Node 25 -> Node 17
dtnsim.node[25].app.enable = true
dtnsim.node[25].app.bundlesNumber = "1"
dtnsim.node[25].app.start = "19"
dtnsim.node[25].app.destinationEid = "17"
dtnsim.node[25].app.size = "50"
# Node 25 -> Node 28
dtnsim.node[25].app.enable = true
dtnsim.node[25].app.bundlesNumber = "1"
dtnsim.node[25].app.start = "16"
dtnsim.node[25].app.destinationEid = "28"
dtnsim.node[25].app.size = "100"
# Node 25 -> Node 33
dtnsim.node[25].app.enable = true
dtnsim.node[25].app.bundlesNumber = "1"
dtnsim.node[25].app.start = "19"
dtnsim.node[25].app.destinationEid = "33"
dtnsim.node[25].app.size = "50"
# Node 25 -> Node 10
dtnsim.node[25].app.enable = true
dtnsim.node[25].app.bundlesNumber = "1"
dtnsim.node[25].app.start = "2"
dtnsim.node[25].app.destinationEid = "10"
dtnsim.node[25].app.size = "200"
# Node 25 -> Node 37
dtnsim.node[25].app.enable = true
dtnsim.node[25].app.bundlesNumber = "1"
dtnsim.node[25].app.start = "4"
dtnsim.node[25].app.destinationEid = "37"
dtnsim.node[25].app.size = "500"
# Node 26 -> Node 38
dtnsim.node[26].app.enable = true
dtnsim.node[26].app.bundlesNumber = "1"
dtnsim.node[26].app.start = "20"
dtnsim.node[26].app.destinationEid = "38"
dtnsim.node[26].app.size = "50"
# Node 26 -> Node 20
dtnsim.node[26].app.enable = true
dtnsim.node[26].app.bundlesNumber = "1"
dtnsim.node[26].app.start = "7"
dtnsim.node[26].app.destinationEid = "20"
dtnsim.node[26].app.size = "200"
# Node 26 -> Node 34
dtnsim.node[26].app.enable = true
dtnsim.node[26].app.bundlesNumber = "1"
dtnsim.node[26].app.start = "15"
dtnsim.node[26].app.destinationEid = "34"
dtnsim.node[26].app.size = "100"
# Node 26 -> Node 21
dtnsim.node[26].app.enable = true
dtnsim.node[26].app.bundlesNumber = "1"
dtnsim.node[26].app.start = "9"
dtnsim.node[26].app.destinationEid = "21"
dtnsim.node[26].app.size = "100"
# Node 27 -> Node 46
dtnsim.node[27].app.enable = true
dtnsim.node[27].app.bundlesNumber = "1"
dtnsim.node[27].app.start = "13"
dtnsim.node[27].app.destinationEid = "46"
dtnsim.node[27].app.size = "200"
# Node 27 -> Node 22
dtnsim.node[27].app.enable = true
dtnsim.node[27].app.bundlesNumber = "1"
dtnsim.node[27].app.start = "19"
dtnsim.node[27].app.destinationEid = "22"
dtnsim.node[27].app.size = "100"
# Node 27 -> Node 38
dtnsim.node[27].app.enable = true
dtnsim.node[27].app.bundlesNumber = "1"
dtnsim.node[27].app.start = "19"
dtnsim.node[27].app.destinationEid = "38"
dtnsim.node[27].app.size = "50"
# Node 27 -> Node 3
dtnsim.node[27].app.enable = true
dtnsim.node[27].app.bundlesNumber = "1"
dtnsim.node[27].app.start = "19"
dtnsim.node[27].app.destinationEid = "3"
dtnsim.node[27].app.size = "100"
# Node 28 -> Node 29
dtnsim.node[28].app.enable = true
dtnsim.node[28].app.bundlesNumber = "1"
dtnsim.node[28].app.start = "6"
dtnsim.node[28].app.destinationEid = "29"
dtnsim.node[28].app.size = "500"
# Node 29 -> Node 12
dtnsim.node[29].app.enable = true
dtnsim.node[29].app.bundlesNumber = "1"
dtnsim.node[29].app.start = "2"
dtnsim.node[29].app.destinationEid = "12"
dtnsim.node[29].app.size = "100"
# Node 29 -> Node 1
dtnsim.node[29].app.enable = true
dtnsim.node[29].app.bundlesNumber = "1"
dtnsim.node[29].app.start = "13"
dtnsim.node[29].app.destinationEid = "1"
dtnsim.node[29].app.size = "100"
# Node 29 -> Node 48
dtnsim.node[29].app.enable = true
dtnsim.node[29].app.bundlesNumber = "1"
dtnsim.node[29].app.start = "16"
dtnsim.node[29].app.destinationEid = "48"
dtnsim.node[29].app.size = "50"
# Node 29 -> Node 44
dtnsim.node[29].app.enable = true
dtnsim.node[29].app.bundlesNumber = "1"
dtnsim.node[29].app.start = "8"
dtnsim.node[29].app.destinationEid = "44"
dtnsim.node[29].app.size = "100"
# Node 30 -> Node 47
dtnsim.node[30].app.enable = true
dtnsim.node[30].app.bundlesNumber = "1"
dtnsim.node[30].app.start = "1"
dtnsim.node[30].app.destinationEid = "47"
dtnsim.node[30].app.size = "100"
# Node 30 -> Node 15
dtnsim.node[30].app.enable = true
dtnsim.node[30].app.bundlesNumber = "1"
dtnsim.node[30].app.start = "9"
dtnsim.node[30].app.destinationEid = "15"
dtnsim.node[30].app.size = "200"
# Node 30 -> Node 21
dtnsim.node[30].app.enable = true
dtnsim.node[30].app.bundlesNumber = "1"
dtnsim.node[30].app.start = "12"
dtnsim.node[30].app.destinationEid = "21"
dtnsim.node[30].app.size = "200"
# Node 31 -> Node 50
dtnsim.node[31].app.enable = true
dtnsim.node[31].app.bundlesNumber = "1"
dtnsim.node[31].app.start = "17"
dtnsim.node[31].app.destinationEid = "50"
dtnsim.node[31].app.size = "100"
# Node 31 -> Node 2
dtnsim.node[31].app.enable = true
dtnsim.node[31].app.bundlesNumber = "1"
dtnsim.node[31].app.start = "20"
dtnsim.node[31].app.destinationEid = "2"
dtnsim.node[31].app.size = "50"
# Node 31 -> Node 43
dtnsim.node[31].app.enable = true
dtnsim.node[31].app.bundlesNumber = "1"
dtnsim.node[31].app.start = "9"
dtnsim.node[31].app.destinationEid = "43"
dtnsim.node[31].app.size = "50"
# Node 32 -> Node 33
dtnsim.node[32].app.enable = true
dtnsim.node[32].app.bundlesNumber = "1"
dtnsim.node[32].app.start = "2"
dtnsim.node[32].app.destinationEid = "33"
dtnsim.node[32].app.size = "100"
# Node 32 -> Node 4
dtnsim.node[32].app.enable = true
dtnsim.node[32].app.bundlesNumber = "1"
dtnsim.node[32].app.start = "14"
dtnsim.node[32].app.destinationEid = "4"
dtnsim.node[32].app.size = "100"
# Node 33 -> Node 18
dtnsim.node[33].app.enable = true
dtnsim.node[33].app.bundlesNumber = "1"
dtnsim.node[33].app.start = "15"
dtnsim.node[33].app.destinationEid = "18"
dtnsim.node[33].app.size = "100"
# Node 33 -> Node 9
dtnsim.node[33].app.enable = true
dtnsim.node[33].app.bundlesNumber = "1"
dtnsim.node[33].app.start = "5"
dtnsim.node[33].app.destinationEid = "9"
dtnsim.node[33].app.size = "200"
# Node 34 -> Node 5
dtnsim.node[34].app.enable = true
dtnsim.node[34].app.bundlesNumber = "1"
dtnsim.node[34].app.start = "6"
dtnsim.node[34].app.destinationEid = "5"
dtnsim.node[34].app.size = "500"
# Node 34 -> Node 26
dtnsim.node[34].app.enable = true
dtnsim.node[34].app.bundlesNumber = "1"
dtnsim.node[34].app.start = "17"
dtnsim.node[34].app.destinationEid = "26"
dtnsim.node[34].app.size = "100"
# Node 34 -> Node 40
dtnsim.node[34].app.enable = true
dtnsim.node[34].app.bundlesNumber = "1"
dtnsim.node[34].app.start = "9"
dtnsim.node[34].app.destinationEid = "40"
dtnsim.node[34].app.size = "500"
# Node 35 -> Node 31
dtnsim.node[35].app.enable = true
dtnsim.node[35].app.bundlesNumber = "1"
dtnsim.node[35].app.start = "15"
dtnsim.node[35].app.destinationEid = "31"
dtnsim.node[35].app.size = "200"
# Node 35 -> Node 36
dtnsim.node[35].app.enable = true
dtnsim.node[35].app.bundlesNumber = "1"
dtnsim.node[35].app.start = "8"
dtnsim.node[35].app.destinationEid = "36"
dtnsim.node[35].app.size = "50"
# Node 35 -> Node 46
dtnsim.node[35].app.enable = true
dtnsim.node[35].app.bundlesNumber = "1"
dtnsim.node[35].app.start = "6"
dtnsim.node[35].app.destinationEid = "46"
dtnsim.node[35].app.size = "100"
# Node 36 -> Node 29
dtnsim.node[36].app.enable = true
dtnsim.node[36].app.bundlesNumber = "1"
dtnsim.node[36].app.start = "18"
dtnsim.node[36].app.destinationEid = "29"
dtnsim.node[36].app.size = "500"
# Node 36 -> Node 7
dtnsim.node[36].app.enable = true
dtnsim.node[36].app.bundlesNumber = "1"
dtnsim.node[36].app.start = "10"
dtnsim.node[36].app.destinationEid = "7"
dtnsim.node[36].app.size = "500"
# Node 36 -> Node 26
dtnsim.node[36].app.enable = true
dtnsim.node[36].app.bundlesNumber = "1"
dtnsim.node[36].app.start = "13"
dtnsim.node[36].app.destinationEid = "26"
dtnsim.node[36].app.size = "500"
# Node 36 -> Node 26
dtnsim.node[36].app.enable = true
dtnsim.node[36].app.bundlesNumber = "1"
dtnsim.node[36].app.start = "8"
dtnsim.node[36].app.destinationEid = "26"
dtnsim.node[36].app.size = "50"
# Node 37 -> Node 26
dtnsim.node[37].app.enable = true
dtnsim.node[37].app.bundlesNumber = "1"
dtnsim.node[37].app.start = "9"
dtnsim.node[37].app.destinationEid = "26"
dtnsim.node[37].app.size = "50"
# Node 37 -> Node 16
dtnsim.node[37].app.enable = true
dtnsim.node[37].app.bundlesNumber = "1"
dtnsim.node[37].app.start = "14"
dtnsim.node[37].app.destinationEid = "16"
dtnsim.node[37].app.size = "500"
# Node 38 -> Node 40
dtnsim.node[38].app.enable = true
dtnsim.node[38].app.bundlesNumber = "1"
dtnsim.node[38].app.start = "11"
dtnsim.node[38].app.destinationEid = "40"
dtnsim.node[38].app.size = "500"
# Node 39 -> Node 22
dtnsim.node[39].app.enable = true
dtnsim.node[39].app.bundlesNumber = "1"
dtnsim.node[39].app.start = "3"
dtnsim.node[39].app.destinationEid = "22"
dtnsim.node[39].app.size = "200"
# Node 40 -> Node 44
dtnsim.node[40].app.enable = true
dtnsim.node[40].app.bundlesNumber = "1"
dtnsim.node[40].app.start = "5"
dtnsim.node[40].app.destinationEid = "44"
dtnsim.node[40].app.size = "500"
# Node 40 -> Node 44
dtnsim.node[40].app.enable = true
dtnsim.node[40].app.bundlesNumber = "1"
dtnsim.node[40].app.start = "18"
dtnsim.node[40].app.destinationEid = "44"
dtnsim.node[40].app.size = "100"
# Node 40 -> Node 10
dtnsim.node[40].app.enable = true
dtnsim.node[40].app.bundlesNumber = "1"
dtnsim.node[40].app.start = "16"
dtnsim.node[40].app.destinationEid = "10"
dtnsim.node[40].app.size = "200"
# Node 41 -> Node 25
dtnsim.node[41].app.enable = true
dtnsim.node[41].app.bundlesNumber = "1"
dtnsim.node[41].app.start = "13"
dtnsim.node[41].app.destinationEid = "25"
dtnsim.node[41].app.size = "50"
# Node 41 -> Node 45
dtnsim.node[41].app.enable = true
dtnsim.node[41].app.bundlesNumber = "1"
dtnsim.node[41].app.start = "17"
dtnsim.node[41].app.destinationEid = "45"
dtnsim.node[41].app.size = "500"
# Node 41 -> Node 29
dtnsim.node[41].app.enable = true
dtnsim.node[41].app.bundlesNumber = "1"
dtnsim.node[41].app.start = "11"
dtnsim.node[41].app.destinationEid = "29"
dtnsim.node[41].app.size = "50"
# Node 41 -> Node 2
dtnsim.node[41].app.enable = true
dtnsim.node[41].app.bundlesNumber = "1"
dtnsim.node[41].app.start = "13"
dtnsim.node[41].app.destinationEid = "2"
dtnsim.node[41].app.size = "100"
# Node 41 -> Node 36
dtnsim.node[41].app.enable = true
dtnsim.node[41].app.bundlesNumber = "1"
dtnsim.node[41].app.start = "19"
dtnsim.node[41].app.destinationEid = "36"
dtnsim.node[41].app.size = "100"
# Node 42 -> Node 38
dtnsim.node[42].app.enable = true
dtnsim.node[42].app.bundlesNumber = "1"
dtnsim.node[42].app.start = "3"
dtnsim.node[42].app.destinationEid = "38"
dtnsim.node[42].app.size = "100"
# Node 43 -> Node 49
dtnsim.node[43].app.enable = true
dtnsim.node[43].app.bundlesNumber = "1"
dtnsim.node[43].app.start = "2"
dtnsim.node[43].app.destinationEid = "49"
dtnsim.node[43].app.size = "50"
# Node 44 -> Node 25
dtnsim.node[44].app.enable = true
dtnsim.node[44].app.bundlesNumber = "1"
dtnsim.node[44].app.start = "3"
dtnsim.node[44].app.destinationEid = "25"
dtnsim.node[44].app.size = "50"
# Node 44 -> Node 19
dtnsim.node[44].app.enable = true
dtnsim.node[44].app.bundlesNumber = "1"
dtnsim.node[44].app.start = "4"
dtnsim.node[44].app.destinationEid = "19"
dtnsim.node[44].app.size = "500"
# Node 44 -> Node 10
dtnsim.node[44].app.enable = true
dtnsim.node[44].app.bundlesNumber = "1"
dtnsim.node[44].app.start = "1"
dtnsim.node[44].app.destinationEid = "10"
dtnsim.node[44].app.size = "100"
# Node 45 -> Node 20
dtnsim.node[45].app.enable = true
dtnsim.node[45].app.bundlesNumber = "1"
dtnsim.node[45].app.start = "18"
dtnsim.node[45].app.destinationEid = "20"
dtnsim.node[45].app.size = "200"
# Node 45 -> Node 47
dtnsim.node[45].app.enable = true
dtnsim.node[45].app.bundlesNumber = "1"
dtnsim.node[45].app.start = "9"
dtnsim.node[45].app.destinationEid = "47"
dtnsim.node[45].app.size = "200"
# Node 46 -> Node 9
dtnsim.node[46].app.enable = true
dtnsim.node[46].app.bundlesNumber = "1"
dtnsim.node[46].app.start = "9"
dtnsim.node[46].app.destinationEid = "9"
dtnsim.node[46].app.size = "500"
# Node 46 -> Node 41
dtnsim.node[46].app.enable = true
dtnsim.node[46].app.bundlesNumber = "1"
dtnsim.node[46].app.start = "19"
dtnsim.node[46].app.destinationEid = "41"
dtnsim.node[46].app.size = "100"
# Node 46 -> Node 28
dtnsim.node[46].app.enable = true
dtnsim.node[46].app.bundlesNumber = "1"
dtnsim.node[46].app.start = "11"
dtnsim.node[46].app.destinationEid = "28"
dtnsim.node[46].app.size = "500"
# Node 47 -> Node 38
dtnsim.node[47].app.enable = true
dtnsim.node[47].app.bundlesNumber = "1"
dtnsim.node[47].app.start = "11"
dtnsim.node[47].app.destinationEid = "38"
dtnsim.node[47].app.size = "50"
# Node 47 -> Node 8
dtnsim.node[47].app.enable = true
dtnsim.node[47].app.bundlesNumber = "1"
dtnsim.node[47].app.start = "14"
dtnsim.node[47].app.destinationEid = "8"
dtnsim.node[47].app.size = "100"
# Node 47 -> Node 5
dtnsim.node[47].app.enable = true
dtnsim.node[47].app.bundlesNumber = "1"
dtnsim.node[47].app.start = "12"
dtnsim.node[47].app.destinationEid = "5"
dtnsim.node[47].app.size = "500"
# Node 48 -> Node 23
dtnsim.node[48].app.enable = true
dtnsim.node[48].app.bundlesNumber = "1"
dtnsim.node[48].app.start = "15"
dtnsim.node[48].app.destinationEid = "23"
dtnsim.node[48].app.size = "500"
# Node 48 -> Node 29
dtnsim.node[48].app.enable = true
dtnsim.node[48].app.bundlesNumber = "1"
dtnsim.node[48].app.start = "8"
dtnsim.node[48].app.destinationEid = "29"
dtnsim.node[48].app.size = "500"
# Node 48 -> Node 31
dtnsim.node[48].app.enable = true
dtnsim.node[48].app.bundlesNumber = "1"
dtnsim.node[48].app.start = "13"
dtnsim.node[48].app.destinationEid = "31"
dtnsim.node[48].app.size = "50"
# Node 49 -> Node 35
dtnsim.node[49].app.enable = true
dtnsim.node[49].app.bundlesNumber = "1"
dtnsim.node[49].app.start = "11"
dtnsim.node[49].app.destinationEid = "35"
dtnsim.node[49].app.size = "100"
# Node 49 -> Node 6
dtnsim.node[49].app.enable = true
dtnsim.node[49].app.bundlesNumber = "1"
dtnsim.node[49].app.start = "7"
dtnsim.node[49].app.destinationEid = "6"
dtnsim.node[49].app.size = "200"
# Node 50 -> Node 6
dtnsim.node[50].app.enable = true
dtnsim.node[50].app.bundlesNumber = "1"
dtnsim.node[50].app.start = "14"
dtnsim.node[50].app.destinationEid = "6"
dtnsim.node[50].app.size = "500"
# Node 50 -> Node 11
dtnsim.node[50].app.enable = true
dtnsim.node[50].app.bundlesNumber = "1"