[General]
network = src.dtnsim										
repeat = 1
allow-object-stealing-on-deletion = true

# Simulation end time
sim-time-limit = 50s

# Nodes quantity (identifiers (EiDs) matches their index, EiD=0 is ignored)			
dtnsim.nodesNumber = 2
dtnsim.node[1..2].icon = "satellite"

# Net Layer
dtnsim.node[*].dtn.routing = "antop"
dtnsim.central.contactsFile = "contactPlan/dtnsim_demo.txt"
dtnsim.node[*].dtn.routingType = "routeListType:allPaths-firstEnding,volumeAware:allContacts,extensionBlock:on,contactPlan:global"
dtnsim.node[*].dtn.printRoutingDebug = true

# App Layer (comma separeted strings for different traffic generators)			
dtnsim.node[1].app.enable=true			
dtnsim.node[1].app.bundlesNumber="1"
dtnsim.node[1].app.start="1"				 
dtnsim.node[1].app.destinationEid="3"
dtnsim.node[1].app.size="100"

dtnsim.node[2].app.enable=true			
dtnsim.node[2].app.bundlesNumber="1"
dtnsim.node[2].app.start="5"				 
dtnsim.node[2].app.destinationEid="3"
dtnsim.node[2].app.size="100"      