[General]
network = src.dtnsim										
repeat = 1
allow-object-stealing-on-deletion = true

# Simulation end time
sim-time-limit = 84600s

# Nodes quantity (identifiers (EiDs) matches their index, EiD=0 is ignored)			
dtnsim.nodesNumber = 180
dtnsim.node[*].icon = "satellite"

# Nodes's failure rates
dtnsim.node[*].fault.enable = true
dtnsim.node[*].fault.meanTTF = 90s
dtnsim.node[*].fault.meanTTR = 10s

dtnsim.node[*].dtn.routing = "cgrModel350"
dtnsim.node[*].dtn.printRoutingDebug = true

# --- Random Traffic Configuration ---
# Node 1 random traffic
dtnsim.node[1].app.enable = true
dtnsim.node[1].app.bundlesNumber = "2,8,3,15,20,22,5,19,5,1"
dtnsim.node[1].app.start = "27,48,82,63,42,27,98,18,32,69"
dtnsim.node[1].app.destinationEid = "149,160,166,127,53,128,143,44,179,119"
dtnsim.node[1].app.size = "50,200,100,500,500,50,50,500,500,500"
# Node 2 random traffic
dtnsim.node[2].app.enable = true
dtnsim.node[2].app.bundlesNumber = "4,15,9,14,6,10,15,10,16,1"
dtnsim.node[2].app.start = "88,38,7,86,94,28,98,98,55,20"
dtnsim.node[2].app.destinationEid = "113,166,42,17,58,130,72,83,93,146"
dtnsim.node[2].app.size = "500,500,50,50,200,200,50,100,500,50"
# Node 3 random traffic
dtnsim.node[3].app.enable = true
dtnsim.node[3].app.bundlesNumber = "3,16,5,7,1,24,21,14,9"
dtnsim.node[3].app.start = "99,58,63,53,89,71,59,16,41"
dtnsim.node[3].app.destinationEid = "163,148,153,130,46,117,24,150,142"
dtnsim.node[3].app.size = "100,100,200,200,50,100,100,500,500"
# Node 4 random traffic
dtnsim.node[4].app.enable = true
dtnsim.node[4].app.bundlesNumber = "18,9,6,13,13,5,17,17,1,1"
dtnsim.node[4].app.start = "94,11,7,26,84,45,65,84,32,2"
dtnsim.node[4].app.destinationEid = "104,156,20,126,66,150,129,115,147,126"
dtnsim.node[4].app.size = "100,500,200,500,500,500,200,200,50,100"
# Node 5 random traffic
dtnsim.node[5].app.enable = true
dtnsim.node[5].app.bundlesNumber = "20,5,19,6,19,7,23,1"
dtnsim.node[5].app.start = "32,44,30,81,79,9,32,12"
dtnsim.node[5].app.destinationEid = "155,55,116,24,171,68,38,64"
dtnsim.node[5].app.size = "50,200,100,200,100,500,100,500"
# Node 6 random traffic
dtnsim.node[6].app.enable = true
dtnsim.node[6].app.bundlesNumber = "20,9,3,7,9,19,11,17,5"
dtnsim.node[6].app.start = "100,71,71,77,13,48,34,49,98"
dtnsim.node[6].app.destinationEid = "137,89,153,65,36,140,117,105,33"
dtnsim.node[6].app.size = "50,200,200,50,50,100,200,50,500"
# Node 7 random traffic
dtnsim.node[7].app.enable = true
dtnsim.node[7].app.bundlesNumber = "13,11,24,6,2,5,5,19,13,1,1"
dtnsim.node[7].app.start = "33,54,52,8,92,91,47,79,71,19,66"
dtnsim.node[7].app.destinationEid = "15,49,67,27,59,143,149,58,154,29,42"
dtnsim.node[7].app.size = "500,50,500,200,100,500,50,500,50,200,50"
# Node 8 random traffic
dtnsim.node[8].app.enable = true
dtnsim.node[8].app.bundlesNumber = "23,16,15,19,18,9"
dtnsim.node[8].app.start = "44,66,37,49,38,63"
dtnsim.node[8].app.destinationEid = "105,45,34,24,72,29"
dtnsim.node[8].app.size = "50,50,200,200,50,100"
# Node 9 random traffic
dtnsim.node[9].app.enable = true
dtnsim.node[9].app.bundlesNumber = "13,13,21,17,21,4,10,1"
dtnsim.node[9].app.start = "29,75,28,86,95,85,28,31"
dtnsim.node[9].app.destinationEid = "12,31,81,2,150,131,52,134"
dtnsim.node[9].app.size = "50,500,100,200,200,200,100,100"
# Node 10 random traffic
dtnsim.node[10].app.enable = true
dtnsim.node[10].app.bundlesNumber = "7,1,2,13,24,17,22,11,3"
dtnsim.node[10].app.start = "76,92,44,40,28,47,93,77,81"
dtnsim.node[10].app.destinationEid = "3,42,175,135,51,62,100,76,50"
dtnsim.node[10].app.size = "200,50,200,50,100,200,50,200,200"
# Node 11 random traffic
dtnsim.node[11].app.enable = true
dtnsim.node[11].app.bundlesNumber = "19,5,18,11,12,24,8,3"
dtnsim.node[11].app.start = "4,98,33,41,7,28,4,89"
dtnsim.node[11].app.destinationEid = "4,61,134,163,138,45,164,161"
dtnsim.node[11].app.size = "200,100,50,50,50,50,100,200"
# Node 12 random traffic
dtnsim.node[12].app.enable = true
dtnsim.node[12].app.bundlesNumber = "7,7,14,4,10,9,10,21,15,3"
dtnsim.node[12].app.start = "67,80,92,36,2,90,16,31,98,66"
dtnsim.node[12].app.destinationEid = "73,152,136,8,56,177,52,20,164,115"
dtnsim.node[12].app.size = "50,200,500,200,100,200,100,50,500,50"
# Node 13 random traffic
dtnsim.node[13].app.enable = true
dtnsim.node[13].app.bundlesNumber = "1,15,15,10,18,6,12,17,4,2"
dtnsim.node[13].app.start = "79,88,22,33,54,59,11,4,63,23"
dtnsim.node[13].app.destinationEid = "103,43,60,160,168,25,169,14,65,120"
dtnsim.node[13].app.size = "500,500,200,200,500,50,100,50,200,200"
# Node 14 random traffic
dtnsim.node[14].app.enable = true
dtnsim.node[14].app.bundlesNumber = "15,2,24,21,24,8,1,3,1,1"
dtnsim.node[14].app.start = "1,97,11,100,84,56,39,52,65,13"
dtnsim.node[14].app.destinationEid = "174,36,57,76,32,147,150,108,159,88"
dtnsim.node[14].app.size = "500,100,100,500,100,50,100,100,500,100"
# Node 15 random traffic
dtnsim.node[15].app.enable = true
dtnsim.node[15].app.bundlesNumber = "16,8,23,7,6,7,9,13,1,2,2,6"
dtnsim.node[15].app.start = "46,92,29,32,66,10,9,6,76,87,3,28"
dtnsim.node[15].app.destinationEid = "35,92,65,3,103,49,86,38,56,145,81,143"
dtnsim.node[15].app.size = "200,50,100,200,200,50,100,500,100,200,50,100"
# Node 16 random traffic
dtnsim.node[16].app.enable = true
dtnsim.node[16].app.bundlesNumber = "14,2,19,23,18,7,10,5,1,1"
dtnsim.node[16].app.start = "52,87,50,76,56,46,87,33,59,38"
dtnsim.node[16].app.destinationEid = "160,10,86,88,157,135,78,51,41,54"
dtnsim.node[16].app.size = "100,500,500,100,200,50,50,100,200,50"
# Node 17 random traffic
dtnsim.node[17].app.enable = true
dtnsim.node[17].app.bundlesNumber = "20,25,12,4,5,4,9,14,2,4,1"
dtnsim.node[17].app.start = "87,58,72,60,4,31,92,12,85,57,29"
dtnsim.node[17].app.destinationEid = "33,141,124,128,163,136,126,129,158,20,88"
dtnsim.node[17].app.size = "200,200,100,50,500,200,100,200,200,100,500"
# Node 18 random traffic
dtnsim.node[18].app.enable = true
dtnsim.node[18].app.bundlesNumber = "8,16,24,14,24,13,1"
dtnsim.node[18].app.start = "23,84,80,13,90,18,16"
dtnsim.node[18].app.destinationEid = "173,149,107,141,87,159,153"
dtnsim.node[18].app.size = "50,50,500,200,100,50,100"
# Node 19 random traffic
dtnsim.node[19].app.enable = true
dtnsim.node[19].app.bundlesNumber = "23,12,17,5,17,16,10"
dtnsim.node[19].app.start = "11,74,81,26,14,1,85"
dtnsim.node[19].app.destinationEid = "8,112,52,80,55,59,55"
dtnsim.node[19].app.size = "100,100,200,100,100,200,50"
# Node 20 random traffic
dtnsim.node[20].app.enable = true
dtnsim.node[20].app.bundlesNumber = "25,2,18,22,2,12,13,4,1,1"
dtnsim.node[20].app.start = "81,93,75,46,11,66,42,43,82,61"
dtnsim.node[20].app.destinationEid = "71,71,99,39,123,112,1,151,28,71"
dtnsim.node[20].app.size = "50,500,500,50,500,50,500,100,50,500"
# Node 21 random traffic
dtnsim.node[21].app.enable = true
dtnsim.node[21].app.bundlesNumber = "13,7,22,6,24,15,3,8,1,1"
dtnsim.node[21].app.start = "11,62,42,87,65,79,97,20,3,64"
dtnsim.node[21].app.destinationEid = "179,168,22,139,121,130,132,46,83,129"
dtnsim.node[21].app.size = "100,200,100,200,500,500,100,100,100,100"
# Node 22 random traffic
dtnsim.node[22].app.enable = true
dtnsim.node[22].app.bundlesNumber = "23,6,20,8,14,14,15"
dtnsim.node[22].app.start = "95,34,43,48,40,94,38"
dtnsim.node[22].app.destinationEid = "35,18,34,160,124,51,82"
dtnsim.node[22].app.size = "100,200,100,50,100,100,200"
# Node 23 random traffic
dtnsim.node[23].app.enable = true
dtnsim.node[23].app.bundlesNumber = "17,9,4,13,25,16,13,2,1"
dtnsim.node[23].app.start = "57,86,97,64,88,71,25,73,1"
dtnsim.node[23].app.destinationEid = "47,174,12,27,16,141,20,94,156"
dtnsim.node[23].app.size = "50,500,50,500,500,100,200,50,50"
# Node 24 random traffic
dtnsim.node[24].app.enable = true
dtnsim.node[24].app.bundlesNumber = "12,8,14,3,6,12,22,6,11,5,1"
dtnsim.node[24].app.start = "11,86,82,79,43,100,42,76,64,22,62"
dtnsim.node[24].app.destinationEid = "14,114,86,173,145,17,168,162,104,125,78"
dtnsim.node[24].app.size = "200,200,100,100,200,200,100,200,500,200,200"
# Node 25 random traffic
dtnsim.node[25].app.enable = true
dtnsim.node[25].app.bundlesNumber = "24,3,2,11,9,11,1,20,7,4,2,3,3"
dtnsim.node[25].app.start = "48,68,30,73,26,30,100,8,64,81,68,53,88"
dtnsim.node[25].app.destinationEid = "169,149,57,175,71,92,79,68,180,157,48,165,69"
dtnsim.node[25].app.size = "50,200,100,200,200,100,100,200,50,50,200,500,200"
# Node 26 random traffic
dtnsim.node[26].app.enable = true
dtnsim.node[26].app.bundlesNumber = "6,23,24,9,16,1,13,3,1,4"
dtnsim.node[26].app.start = "92,38,26,78,70,4,16,9,29,31"
dtnsim.node[26].app.destinationEid = "141,169,38,132,132,81,126,172,153,32"
dtnsim.node[26].app.size = "500,100,200,500,100,100,200,500,50,500"
# Node 27 random traffic
dtnsim.node[27].app.enable = true
dtnsim.node[27].app.bundlesNumber = "22,18,9,24,3,12,12"
dtnsim.node[27].app.start = "56,95,41,35,70,38,65"
dtnsim.node[27].app.destinationEid = "43,144,116,124,59,39,151"
dtnsim.node[27].app.size = "500,200,200,200,50,100,500"
# Node 28 random traffic
dtnsim.node[28].app.enable = true
dtnsim.node[28].app.bundlesNumber = "11,25,19,6,23,10,2,4"
dtnsim.node[28].app.start = "4,26,66,53,68,12,67,59"
dtnsim.node[28].app.destinationEid = "161,8,22,175,67,153,169,77"
dtnsim.node[28].app.size = "100,200,200,200,50,200,200,50"
# Node 29 random traffic
dtnsim.node[29].app.enable = true
dtnsim.node[29].app.bundlesNumber = "24,17,20,5,25,7,2"
dtnsim.node[29].app.start = "80,55,68,82,54,39,32"
dtnsim.node[29].app.destinationEid = "72,25,50,164,174,138,164"
dtnsim.node[29].app.size = "500,200,50,100,100,50,200"
# Node 30 random traffic
dtnsim.node[30].app.enable = true
dtnsim.node[30].app.bundlesNumber = "10,19,14,5,14,16,18,2,2"
dtnsim.node[30].app.start = "22,60,39,81,25,68,30,99,74"
dtnsim.node[30].app.destinationEid = "104,92,105,120,146,90,130,15,11"
dtnsim.node[30].app.size = "50,100,200,50,50,100,50,500,500"
# Node 31 random traffic
dtnsim.node[31].app.enable = true
dtnsim.node[31].app.bundlesNumber = "8,22,3,24,16,9,17,1"
dtnsim.node[31].app.start = "46,87,35,49,44,51,93,15"
dtnsim.node[31].app.destinationEid = "134,42,94,173,46,73,101,69"
dtnsim.node[31].app.size = "200,200,200,50,500,200,50,50"
# Node 32 random traffic
dtnsim.node[32].app.enable = true
dtnsim.node[32].app.bundlesNumber = "24,17,21,11,4,12,11"
dtnsim.node[32].app.start = "82,77,98,4,59,83,79"
dtnsim.node[32].app.destinationEid = "138,105,139,46,34,23,31"
dtnsim.node[32].app.size = "500,500,100,50,200,200,50"
# Node 33 random traffic
dtnsim.node[33].app.enable = true
dtnsim.node[33].app.bundlesNumber = "21,1,13,22,9,11,22,1"
dtnsim.node[33].app.start = "49,36,23,91,44,40,40,97"
dtnsim.node[33].app.destinationEid = "174,88,104,160,55,25,98,92"
dtnsim.node[33].app.size = "100,500,100,500,500,200,50,50"
# Node 34 random traffic
dtnsim.node[34].app.enable = true
dtnsim.node[34].app.bundlesNumber = "15,16,17,18,17,14,1,2"
dtnsim.node[34].app.start = "8,38,20,80,95,83,27,60"
dtnsim.node[34].app.destinationEid = "79,176,114,49,15,104,155,24"
dtnsim.node[34].app.size = "500,50,200,500,100,500,500,500"
# Node 35 random traffic
dtnsim.node[35].app.enable = true
dtnsim.node[35].app.bundlesNumber = "18,22,11,5,23,7,5,3,5,1"
dtnsim.node[35].app.start = "10,43,95,70,83,22,85,93,32,47"
dtnsim.node[35].app.destinationEid = "159,49,127,108,34,180,30,117,112,146"
dtnsim.node[35].app.size = "100,100,500,100,200,200,500,200,200,50"
# Node 36 random traffic
dtnsim.node[36].app.enable = true
dtnsim.node[36].app.bundlesNumber = "16,21,11,11,22,4,12,1,2"
dtnsim.node[36].app.start = "29,53,16,45,99,27,23,22,56"
dtnsim.node[36].app.destinationEid = "3,151,49,95,1,84,37,80,163"
dtnsim.node[36].app.size = "200,100,200,200,500,100,500,100,500"
# Node 37 random traffic
dtnsim.node[37].app.enable = true
dtnsim.node[37].app.bundlesNumber = "4,23,23,2,5,4,18,21"
dtnsim.node[37].app.start = "90,98,64,14,23,65,19,42"
dtnsim.node[37].app.destinationEid = "96,172,48,21,178,43,172,43"
dtnsim.node[37].app.size = "100,50,200,500,500,200,200,500"
# Node 38 random traffic
dtnsim.node[38].app.enable = true
dtnsim.node[38].app.bundlesNumber = "22,16,11,2,9,2,7,19,5,6,1"
dtnsim.node[38].app.start = "58,53,60,67,49,58,19,61,3,71,13"
dtnsim.node[38].app.destinationEid = "5,83,122,174,98,42,28,94,64,140,85"
dtnsim.node[38].app.size = "50,200,200,200,200,500,500,200,200,50,200"
# Node 39 random traffic
dtnsim.node[39].app.enable = true
dtnsim.node[39].app.bundlesNumber = "21,21,19,13,9,13,3,1"
dtnsim.node[39].app.start = "59,36,54,71,33,87,74,60"
dtnsim.node[39].app.destinationEid = "55,76,150,144,17,133,97,98"
dtnsim.node[39].app.size = "500,500,500,100,50,200,200,50"
# Node 40 random traffic
dtnsim.node[40].app.enable = true
dtnsim.node[40].app.bundlesNumber = "1,16,15,9,16,22,14,7"
dtnsim.node[40].app.start = "13,76,59,49,91,33,67,21"
dtnsim.node[40].app.destinationEid = "17,28,59,116,51,49,67,125"
dtnsim.node[40].app.size = "500,50,200,200,100,500,200,500"
# Node 41 random traffic
dtnsim.node[41].app.enable = true
dtnsim.node[41].app.bundlesNumber = "12,19,17,5,3,3,20,3,14,4"
dtnsim.node[41].app.start = "14,81,52,11,94,99,13,53,80,81"
dtnsim.node[41].app.destinationEid = "79,156,55,96,19,147,116,78,65,22"
dtnsim.node[41].app.size = "500,100,100,500,500,200,500,500,500,100"
# Node 42 random traffic
dtnsim.node[42].app.enable = true
dtnsim.node[42].app.bundlesNumber = "22,17,1,20,14,21,2,2,1"
dtnsim.node[42].app.start = "77,100,76,95,33,34,94,51,47"
dtnsim.node[42].app.destinationEid = "39,57,31,175,162,116,57,38,16"
dtnsim.node[42].app.size = "500,50,100,50,50,100,200,100,200"
# Node 43 random traffic
dtnsim.node[43].app.enable = true
dtnsim.node[43].app.bundlesNumber = "7,8,11,1,13,18,11,7,14,8,1,1"
dtnsim.node[43].app.start = "41,68,3,92,11,94,31,8,86,86,48,99"
dtnsim.node[43].app.destinationEid = "41,99,58,47,89,80,110,23,10,175,56,63"
dtnsim.node[43].app.size = "100,100,50,200,100,500,500,100,50,100,100,50"
# Node 44 random traffic
dtnsim.node[44].app.enable = true
dtnsim.node[44].app.bundlesNumber = "20,8,4,21,16,23,3,5"
dtnsim.node[44].app.start = "97,93,93,44,57,62,2,63"
dtnsim.node[44].app.destinationEid = "147,14,90,24,156,169,85,46"
dtnsim.node[44].app.size = "50,200,500,500,50,100,500,500"
# Node 45 random traffic
dtnsim.node[45].app.enable = true
dtnsim.node[45].app.bundlesNumber = "22,13,3,21,4,23,11,1,1,1"
dtnsim.node[45].app.start = "9,17,62,58,3,76,19,47,59,48"
dtnsim.node[45].app.destinationEid = "63,22,142,13,57,68,37,103,7,24"
dtnsim.node[45].app.size = "200,500,500,100,50,50,500,50,500,100"
# Node 46 random traffic
dtnsim.node[46].app.enable = true
dtnsim.node[46].app.bundlesNumber = "11,20,5,18,11,6,23,4,1,1"
dtnsim.node[46].app.start = "23,79,54,100,70,37,92,28,39,6"
dtnsim.node[46].app.destinationEid = "92,15,111,76,114,69,17,52,143,135"
dtnsim.node[46].app.size = "500,200,100,200,200,500,100,500,500,200"
# Node 47 random traffic
dtnsim.node[47].app.enable = true
dtnsim.node[47].app.bundlesNumber = "2,20,8,3,11,19,24,9,2,2"
dtnsim.node[47].app.start = "27,79,35,73,44,8,59,31,39,24"
dtnsim.node[47].app.destinationEid = "120,19,85,20,17,112,92,114,98,110"
dtnsim.node[47].app.size = "200,50,500,50,500,50,500,100,50,500"
# Node 48 random traffic
dtnsim.node[48].app.enable = true
dtnsim.node[48].app.bundlesNumber = "16,1,21,11,2,12,13,21,2,1"
dtnsim.node[48].app.start = "37,14,52,24,77,61,23,91,21,85"
dtnsim.node[48].app.destinationEid = "109,36,12,177,72,137,117,109,17,74"
dtnsim.node[48].app.size = "100,500,200,50,50,500,200,500,100,100"
# Node 49 random traffic
dtnsim.node[49].app.enable = true
dtnsim.node[49].app.bundlesNumber = "25,23,3,10,22,1,15,1"
dtnsim.node[49].app.start = "52,40,35,40,56,35,79,86"
dtnsim.node[49].app.destinationEid = "119,89,6,133,108,12,16,125"
dtnsim.node[49].app.size = "500,200,100,100,50,200,200,500"
# Node 50 random traffic
dtnsim.node[50].app.enable = true
dtnsim.node[50].app.bundlesNumber = "11,23,8,3,15,22,6,8,4"
dtnsim.node[50].app.start = "37,84,17,94,93,88,64,45,86"
dtnsim.node[50].app.destinationEid = "169,144,113,93,156,152,152,103,123"
dtnsim.node[50].app.size = "100,200,200,500,50,500,100,50,500"
# Node 51 random traffic
dtnsim.node[51].app.enable = true
dtnsim.node[51].app.bundlesNumber = "21,25,11,18,19,6"
dtnsim.node[51].app.start = "59,43,20,36,7,52"
dtnsim.node[51].app.destinationEid = "48,172,157,127,26,13"
dtnsim.node[51].app.size = "200,100,500,100,100,500"
# Node 52 random traffic
dtnsim.node[52].app.enable = true
dtnsim.node[52].app.bundlesNumber = "15,6,15,14,18,17,15"
dtnsim.node[52].app.start = "72,39,91,90,64,97,97"
dtnsim.node[52].app.destinationEid = "49,18,125,44,94,134,90"
dtnsim.node[52].app.size = "100,200,500,200,100,100,100"
# Node 53 random traffic
dtnsim.node[53].app.enable = true
dtnsim.node[53].app.bundlesNumber = "14,5,12,23,10,3,8,16,8,1"
dtnsim.node[53].app.start = "5,39,13,52,16,99,27,89,19,42"
dtnsim.node[53].app.destinationEid = "131,77,139,155,172,42,60,92,160,170"
dtnsim.node[53].app.size = "500,200,50,50,100,50,100,50,100,100"
# Node 54 random traffic
dtnsim.node[54].app.enable = true
dtnsim.node[54].app.bundlesNumber = "9,13,16,17,12,5,20,3,3,1,1"
dtnsim.node[54].app.start = "71,28,6,20,26,20,19,86,40,43,62"
dtnsim.node[54].app.destinationEid = "147,149,24,87,56,10,14,162,113,67,73"
dtnsim.node[54].app.size = "500,100,100,500,50,100,200,200,50,100,50"
# Node 55 random traffic
dtnsim.node[55].app.enable = true
dtnsim.node[55].app.bundlesNumber = "8,2,20,8,14,24,9,12,2,1"
dtnsim.node[55].app.start = "30,42,37,79,98,6,23,81,59,13"
dtnsim.node[55].app.destinationEid = "39,1,38,26,26,112,102,23,99,85"
dtnsim.node[55].app.size = "200,200,200,500,100,200,200,100,200,50"
# Node 56 random traffic
dtnsim.node[56].app.enable = true
dtnsim.node[56].app.bundlesNumber = "3,12,18,21,5,20,13,5,2,1"
dtnsim.node[56].app.start = "89,78,73,2,3,13,1,36,65,86"
dtnsim.node[56].app.destinationEid = "2,179,111,135,9,25,34,141,169,132"
dtnsim.node[56].app.size = "200,200,50,100,50,200,200,200,100,50"
# Node 57 random traffic
dtnsim.node[57].app.enable = true
dtnsim.node[57].app.bundlesNumber = "11,15,17,7,18,14,16,1,1"
dtnsim.node[57].app.start = "9,54,89,23,34,92,71,44,40"
dtnsim.node[57].app.destinationEid = "6,29,82,15,37,97,98,99,124"
dtnsim.node[57].app.size = "200,100,50,50,50,100,500,100,200"
# Node 58 random traffic
dtnsim.node[58].app.enable = true
dtnsim.node[58].app.bundlesNumber = "25,3,12,25,21,4,7,3"
dtnsim.node[58].app.start = "94,67,43,84,62,12,28,28"
dtnsim.node[58].app.destinationEid = "144,137,122,180,22,27,113,73"
dtnsim.node[58].app.size = "50,200,100,500,500,200,50,50"
# Node 59 random traffic
dtnsim.node[59].app.enable = true
dtnsim.node[59].app.bundlesNumber = "17,11,15,19,16,18,1,1,2"
dtnsim.node[59].app.start = "27,54,77,36,86,57,79,81,14"
dtnsim.node[59].app.destinationEid = "46,65,78,92,75,26,36,72,34"
dtnsim.node[59].app.size = "500,100,100,500,100,200,200,50,200"
# Node 60 random traffic
dtnsim.node[60].app.enable = true
dtnsim.node[60].app.bundlesNumber = "22,25,19,17,6,11"
dtnsim.node[60].app.start = "37,15,74,18,95,79"
dtnsim.node[60].app.destinationEid = "81,71,12,180,155,25"
dtnsim.node[60].app.size = "200,500,50,200,500,100"
# Node 61 random traffic
dtnsim.node[61].app.enable = true
dtnsim.node[61].app.bundlesNumber = "10,24,21,16,10,1,6,12"
dtnsim.node[61].app.start = "24,80,63,64,21,66,87,47"
dtnsim.node[61].app.destinationEid = "90,150,170,88,97,27,93,90"
dtnsim.node[61].app.size = "500,50,100,200,100,200,200,200"
# Node 62 random traffic
dtnsim.node[62].app.enable = true
dtnsim.node[62].app.bundlesNumber = "5,18,12,13,13,9,9,15,1,3,2"
dtnsim.node[62].app.start = "15,41,69,71,66,81,52,78,10,69,91"
dtnsim.node[62].app.destinationEid = "84,20,31,124,66,37,136,118,29,149,75"
dtnsim.node[62].app.size = "100,100,200,200,200,500,500,200,500,500,200"
# Node 63 random traffic
dtnsim.node[63].app.enable = true
dtnsim.node[63].app.bundlesNumber = "3,1,16,25,6,14,21,13,1"
dtnsim.node[63].app.start = "59,84,62,96,61,14,16,77,34"
dtnsim.node[63].app.destinationEid = "152,162,73,109,21,83,165,158,158"
dtnsim.node[63].app.size = "200,100,200,50,100,200,100,100,50"
# Node 64 random traffic
dtnsim.node[64].app.enable = true
dtnsim.node[64].app.bundlesNumber = "19,25,2,1,18,21,8,2,4"
dtnsim.node[64].app.start = "32,46,33,23,60,74,67,30,32"
dtnsim.node[64].app.destinationEid = "174,113,138,6,160,148,152,1,58"
dtnsim.node[64].app.size = "50,500,200,100,50,50,100,200,500"
# Node 65 random traffic
dtnsim.node[65].app.enable = true
dtnsim.node[65].app.bundlesNumber = "11,18,25,23,4,6,9,2,1,1"
dtnsim.node[65].app.start = "9,2,17,54,96,80,84,32,71,26"
dtnsim.node[65].app.destinationEid = "167,135,123,152,106,53,144,3,178,14"
dtnsim.node[65].app.size = "50,100,200,200,100,500,100,200,500,500"
# Node 66 random traffic
dtnsim.node[66].app.enable = true
dtnsim.node[66].app.bundlesNumber = "1,14,15,4,22,6,1,24,12,1"
dtnsim.node[66].app.start = "10,98,76,13,93,79,88,61,76,100"
dtnsim.node[66].app.destinationEid = "160,75,37,24,161,174,70,1,116,109"
dtnsim.node[66].app.size = "50,100,100,200,50,50,200,100,200,200"
# Node 67 random traffic
dtnsim.node[67].app.enable = true
dtnsim.node[67].app.bundlesNumber = "19,25,25,7,19,3,2"
dtnsim.node[67].app.start = "5,25,55,61,54,46,89"
dtnsim.node[67].app.destinationEid = "121,4,35,16,30,169,1"
dtnsim.node[67].app.size = "100,100,100,500,50,200,50"
# Node 68 random traffic
dtnsim.node[68].app.enable = true
dtnsim.node[68].app.bundlesNumber = "14,11,23,22,5,21,1,3"
dtnsim.node[68].app.start = "64,87,75,27,73,84,61,25"
dtnsim.node[68].app.destinationEid = "60,46,1,113,58,67,109,19"
dtnsim.node[68].app.size = "500,100,500,100,500,50,200,200"
# Node 69 random traffic
dtnsim.node[69].app.enable = true
dtnsim.node[69].app.bundlesNumber = "6,25,22,4,5,20,7,6,1,4"
dtnsim.node[69].app.start = "75,46,58,30,26,37,18,61,10,78"
dtnsim.node[69].app.destinationEid = "82,80,90,106,130,104,131,91,142,29"
dtnsim.node[69].app.size = "500,200,200,100,500,100,100,100,500,50"
# Node 70 random traffic
dtnsim.node[70].app.enable = true
dtnsim.node[70].app.bundlesNumber = "7,25,23,11,8,12,10,3,1"
dtnsim.node[70].app.start = "20,85,87,36,92,52,39,90,4"
dtnsim.node[70].app.destinationEid = "135,39,80,31,57,106,93,166,115"
dtnsim.node[70].app.size = "200,100,500,50,50,50,100,100,200"
# Node 71 random traffic
dtnsim.node[71].app.enable = true
dtnsim.node[71].app.bundlesNumber = "2,25,11,24,18,14,6"
dtnsim.node[71].app.start = "97,32,77,97,98,11,76"
dtnsim.node[71].app.destinationEid = "8,127,38,120,102,109,129"
dtnsim.node[71].app.size = "100,100,200,500,200,50,200"
# Node 72 random traffic
dtnsim.node[72].app.enable = true
dtnsim.node[72].app.bundlesNumber = "16,25,8,2,7,24,10,4,4"
dtnsim.node[72].app.start = "64,24,87,44,41,73,31,79,93"
dtnsim.node[72].app.destinationEid = "115,133,50,179,14,159,53,106,83"
dtnsim.node[72].app.size = "500,100,50,500,200,500,100,200,500"
# Node 73 random traffic
dtnsim.node[73].app.enable = true
dtnsim.node[73].app.bundlesNumber = "9,14,14,16,7,18,11,6,1,1,3"
dtnsim.node[73].app.start = "58,20,63,68,62,22,31,61,64,54,42"
dtnsim.node[73].app.destinationEid = "165,5,49,120,132,41,174,25,13,19,178"
dtnsim.node[73].app.size = "100,100,200,50,50,500,200,100,50,100,50"
# Node 74 random traffic
dtnsim.node[74].app.enable = true
dtnsim.node[74].app.bundlesNumber = "16,16,8,1,1,1,4,7,24,10,7,4,1"
dtnsim.node[74].app.start = "31,28,88,70,31,59,54,10,20,36,77,61,93"
dtnsim.node[74].app.destinationEid = "8,38,14,47,51,98,157,48,121,14,55,178,121"
dtnsim.node[74].app.size = "100,500,100,200,200,50,200,500,200,50,50,500,50"
# Node 75 random traffic
dtnsim.node[75].app.enable = true
dtnsim.node[75].app.bundlesNumber = "5,9,2,23,20,17,18,1,5"
dtnsim.node[75].app.start = "23,36,83,43,18,50,61,76,72"
dtnsim.node[75].app.destinationEid = "148,67,6,61,30,176,83,180,167"
dtnsim.node[75].app.size = "50,50,50,200,500,500,100,500,100"
# Node 76 random traffic
dtnsim.node[76].app.enable = true
dtnsim.node[76].app.bundlesNumber = "3,6,14,1,6,3,7,5,9,16,15,5,10"
dtnsim.node[76].app.start = "6,87,3,58,28,95,63,62,99,22,48,33,19"
dtnsim.node[76].app.destinationEid = "178,13,92,93,145,54,25,177,134,85,10,147,89"
dtnsim.node[76].app.size = "500,200,50,500,500,500,100,500,100,500,100,500,200"
# Node 77 random traffic
dtnsim.node[77].app.enable = true
dtnsim.node[77].app.bundlesNumber = "22,3,11,16,21,7,17,3"
dtnsim.node[77].app.start = "83,22,55,5,1,8,71,98"
dtnsim.node[77].app.destinationEid = "163,171,42,116,49,134,82,133"
dtnsim.node[77].app.size = "100,200,50,500,200,100,100,200"
# Node 78 random traffic
dtnsim.node[78].app.enable = true
dtnsim.node[78].app.bundlesNumber = "15,1,16,23,23,11,10,1"
dtnsim.node[78].app.start = "80,39,16,54,84,43,14,81"
dtnsim.node[78].app.destinationEid = "66,156,93,159,7,97,37,28"
dtnsim.node[78].app.size = "200,500,200,50,200,200,100,200"
# Node 79 random traffic
dtnsim.node[79].app.enable = true
dtnsim.node[79].app.bundlesNumber = "14,23,15,23,1,1,14,8,1"
dtnsim.node[79].app.start = "34,96,84,34,61,90,18,80,98"
dtnsim.node[79].app.destinationEid = "39,34,25,89,124,42,3,82,33"
dtnsim.node[79].app.size = "50,200,200,500,100,500,500,100,500"
# Node 80 random traffic
dtnsim.node[80].app.enable = true
dtnsim.node[80].app.bundlesNumber = "23,8,17,4,20,17,4,3,3,1"
dtnsim.node[80].app.start = "79,13,94,93,57,17,73,49,9,16"
dtnsim.node[80].app.destinationEid = "10,56,120,81,126,41,38,30,95,19"
dtnsim.node[80].app.size = "50,100,100,500,100,100,100,50,500,100"
# Node 81 random traffic
dtnsim.node[81].app.enable = true
dtnsim.node[81].app.bundlesNumber = "1,15,24,1,17,7,13,18,1,1,1,1"
dtnsim.node[81].app.start = "42,65,65,48,34,15,7,79,90,25,9,46"
dtnsim.node[81].app.destinationEid = "91,161,5,119,53,35,33,67,149,52,14,152"
dtnsim.node[81].app.size = "50,200,50,200,100,100,100,200,500,500,500,200"
# Node 82 random traffic
dtnsim.node[82].app.enable = true
dtnsim.node[82].app.bundlesNumber = "16,5,19,6,24,14,1,13,1,1"
dtnsim.node[82].app.start = "19,31,40,61,90,42,51,72,66,66"
dtnsim.node[82].app.destinationEid = "154,163,8,47,130,21,101,180,108,116"
dtnsim.node[82].app.size = "500,100,50,200,50,100,200,100,50,50"
# Node 83 random traffic
dtnsim.node[83].app.enable = true
dtnsim.node[83].app.bundlesNumber = "20,25,25,14,4,10,2"
dtnsim.node[83].app.start = "56,17,23,36,6,72,1"
dtnsim.node[83].app.destinationEid = "150,172,168,81,40,22,19"
dtnsim.node[83].app.size = "500,50,500,50,500,200,100"
# Node 84 random traffic
dtnsim.node[84].app.enable = true
dtnsim.node[84].app.bundlesNumber = "19,10,11,11,22,20,2,1,3,1"
dtnsim.node[84].app.start = "64,55,55,47,93,4,18,34,22,80"
dtnsim.node[84].app.destinationEid = "110,10,156,52,116,36,25,128,165,11"
dtnsim.node[84].app.size = "100,50,200,50,200,200,200,50,200,200"
# Node 85 random traffic
dtnsim.node[85].app.enable = true
dtnsim.node[85].app.bundlesNumber = "24,20,8,17,19,7,1,2,2"
dtnsim.node[85].app.start = "99,31,1,8,41,36,8,7,64"
dtnsim.node[85].app.destinationEid = "123,106,160,121,135,119,92,55,58"
dtnsim.node[85].app.size = "500,200,500,200,100,200,200,200,500"
# Node 86 random traffic
dtnsim.node[86].app.enable = true
dtnsim.node[86].app.bundlesNumber = "23,6,4,22,11,7,21,4,2"
dtnsim.node[86].app.start = "27,95,35,2,57,42,69,7,66"
dtnsim.node[86].app.destinationEid = "17,59,137,109,108,103,91,61,130"
dtnsim.node[86].app.size = "500,500,50,500,200,50,500,100,100"
# Node 87 random traffic
dtnsim.node[87].app.enable = true
dtnsim.node[87].app.bundlesNumber = "9,7,13,18,23,24,6"
dtnsim.node[87].app.start = "6,60,27,36,34,47,84"
dtnsim.node[87].app.destinationEid = "118,136,9,43,3,49,116"
dtnsim.node[87].app.size = "50,200,200,100,100,200,200"
# Node 88 random traffic
dtnsim.node[88].app.enable = true
dtnsim.node[88].app.bundlesNumber = "23,7,23,3,6,19,9,9,1"
dtnsim.node[88].app.start = "99,20,23,6,90,71,9,80,37"
dtnsim.node[88].app.destinationEid = "15,67,68,20,133,129,106,125,13"
dtnsim.node[88].app.size = "100,200,50,100,100,200,200,500,50"
# Node 89 random traffic
dtnsim.node[89].app.enable = true
dtnsim.node[89].app.bundlesNumber = "19,24,20,9,22,4,1,1"
dtnsim.node[89].app.start = "4,13,53,55,16,99,22,97"
dtnsim.node[89].app.destinationEid = "176,88,46,179,98,132,77,22"
dtnsim.node[89].app.size = "100,50,100,100,500,100,50,100"
# Node 90 random traffic
dtnsim.node[90].app.enable = true
dtnsim.node[90].app.bundlesNumber = "4,24,5,17,7,8,8,7,6,5,4,4,1"
dtnsim.node[90].app.start = "32,27,13,52,37,55,59,82,44,97,43,40,29"
dtnsim.node[90].app.destinationEid = "57,180,75,53,15,107,139,28,176,66,100,42,18"
dtnsim.node[90].app.size = "200,200,100,100,200,100,500,100,500,50,500,200,200"
# Node 91 random traffic
dtnsim.node[91].app.enable = true
dtnsim.node[91].app.bundlesNumber = "11,16,15,13,13,14,14,3,1"
dtnsim.node[91].app.start = "30,7,59,23,72,68,75,56,98"
dtnsim.node[91].app.destinationEid = "163,84,141,55,122,1,74,176,67"
dtnsim.node[91].app.size = "100,500,200,200,500,50,500,200,100"
# Node 92 random traffic
dtnsim.node[92].app.enable = true
dtnsim.node[92].app.bundlesNumber = "23,5,17,14,10,9,18,1,1,1,1"
dtnsim.node[92].app.start = "70,14,8,72,64,66,92,60,8,48,39"
dtnsim.node[92].app.destinationEid = "174,104,96,57,49,73,66,117,99,175,8"
dtnsim.node[92].app.size = "50,200,100,200,500,500,50,50,200,100,100"
# Node 93 random traffic
dtnsim.node[93].app.enable = true
dtnsim.node[93].app.bundlesNumber = "7,19,5,3,18,12,12,12,5,1,4,2"
dtnsim.node[93].app.start = "85,57,92,24,98,30,76,33,51,56,62,97"
dtnsim.node[93].app.destinationEid = "98,81,125,31,129,84,157,160,83,143,21,61"
dtnsim.node[93].app.size = "200,500,50,200,500,100,200,50,50,50,200,200"
# Node 94 random traffic
dtnsim.node[94].app.enable = true
dtnsim.node[94].app.bundlesNumber = "3,7,24,12,3,20,1,11,5,11,3"
dtnsim.node[94].app.start = "32,71,91,69,44,16,20,76,78,14,75"
dtnsim.node[94].app.destinationEid = "158,155,14,30,106,17,66,7,110,27,69"
dtnsim.node[94].app.size = "100,100,500,500,50,100,500,50,100,200,200"
# Node 95 random traffic
dtnsim.node[95].app.enable = true
dtnsim.node[95].app.bundlesNumber = "15,9,10,3,11,12,22,1,17"
dtnsim.node[95].app.start = "82,54,83,7,88,34,27,45,76"