[General]
network = src.dtnsim										
repeat = 1
allow-object-stealing-on-deletion = true

# Simulation end time
sim-time-limit = 84600s

# Nodes quantity (identifiers (EiDs) matches their index, EiD=0 is ignored)			
dtnsim.nodesNumber = 180
dtnsim.node[*].icon = "satellite"

# Nodes's failure rates
dtnsim.node[*].fault.enable = false
dtnsim.node[*].fault.meanTTF = 0s
dtnsim.node[*].fault.meanTTR = 0s

dtnsim.node[*].dtn.routing = "cgrModel350"
dtnsim.node[*].dtn.printRoutingDebug = true

# --- Random Traffic Configuration ---
# Node 1 random traffic
dtnsim.node[1].app.enable = true
dtnsim.node[1].app.bundlesNumber = "4,18,13,1,6,1,4,8,7,11,19,3,3,1,1"
dtnsim.node[1].app.start = "86,21,88,31,3,81,93,39,68,94,13,30,69,22,75"
dtnsim.node[1].app.destinationEid = "63,148,149,89,174,31,144,161,134,161,73,143,132,155,141"
dtnsim.node[1].app.size = "200,200,50,50,100,100,500,200,100,500,500,200,500,50,100"
# Node 2 random traffic
dtnsim.node[2].app.enable = true
dtnsim.node[2].app.bundlesNumber = "22,9,12,5,4,1,12,11,2,13,8,1"
dtnsim.node[2].app.start = "82,26,20,100,7,12,88,75,46,97,38,95"
dtnsim.node[2].app.destinationEid = "9,59,71,167,142,50,82,160,146,18,67,74"
dtnsim.node[2].app.size = "500,50,200,50,50,200,500,200,100,50,200,50"
# Node 3 random traffic
dtnsim.node[3].app.enable = true
dtnsim.node[3].app.bundlesNumber = "2,6,12,24,17,19,9,11"
dtnsim.node[3].app.start = "72,23,77,10,19,14,36,6"
dtnsim.node[3].app.destinationEid = "82,171,108,12,75,142,111,76"
dtnsim.node[3].app.size = "50,500,500,100,50,100,500,100"
# Node 4 random traffic
dtnsim.node[4].app.enable = true
dtnsim.node[4].app.bundlesNumber = "6,16,24,23,23,3,3,1,1"
dtnsim.node[4].app.start = "57,17,46,20,100,52,11,32,100"
dtnsim.node[4].app.destinationEid = "18,53,116,149,100,63,106,15,127"
dtnsim.node[4].app.size = "500,50,500,500,200,200,200,50,100"
# Node 5 random traffic
dtnsim.node[5].app.enable = true
dtnsim.node[5].app.bundlesNumber = "25,3,2,21,6,11,7,23,1,1"
dtnsim.node[5].app.start = "73,60,30,72,67,99,26,69,68,67"
dtnsim.node[5].app.destinationEid = "98,43,154,37,35,115,163,141,14,50"
dtnsim.node[5].app.size = "50,200,50,50,200,500,200,500,500,500"
# Node 6 random traffic
dtnsim.node[6].app.enable = true
dtnsim.node[6].app.bundlesNumber = "3,23,23,9,17,10,4,10,1"
dtnsim.node[6].app.start = "51,10,63,10,1,99,63,54,37"
dtnsim.node[6].app.destinationEid = "170,88,63,8,89,92,67,69,154"
dtnsim.node[6].app.size = "100,200,100,50,50,100,200,500,200"
# Node 7 random traffic
dtnsim.node[7].app.enable = true
dtnsim.node[7].app.bundlesNumber = "6,20,17,12,3,15,23,4"
dtnsim.node[7].app.start = "61,33,39,25,17,91,42,18"
dtnsim.node[7].app.destinationEid = "22,16,12,157,142,49,67,159"
dtnsim.node[7].app.size = "500,100,500,100,100,100,200,50"
# Node 8 random traffic
dtnsim.node[8].app.enable = true
dtnsim.node[8].app.bundlesNumber = "12,9,11,5,1,8,12,25,1,3,8,5"
dtnsim.node[8].app.start = "72,40,64,6,58,57,40,55,23,58,24,69"
dtnsim.node[8].app.destinationEid = "90,165,91,114,169,36,162,110,153,150,157,130"
dtnsim.node[8].app.size = "200,500,50,200,200,200,100,500,50,50,100,500"
# Node 9 random traffic
dtnsim.node[9].app.enable = true
dtnsim.node[9].app.bundlesNumber = "4,18,4,7,3,15,12,20,11,5,1"
dtnsim.node[9].app.start = "84,57,19,33,93,12,63,91,78,62,35"
dtnsim.node[9].app.destinationEid = "89,141,175,167,95,77,60,152,47,114,76"
dtnsim.node[9].app.size = "100,100,50,200,200,200,100,500,100,500,200"
# Node 10 random traffic
dtnsim.node[10].app.enable = true
dtnsim.node[10].app.bundlesNumber = "5,11,17,4,18,21,24"
dtnsim.node[10].app.start = "47,92,93,37,35,100,51"
dtnsim.node[10].app.destinationEid = "157,4,129,120,121,41,164"
dtnsim.node[10].app.size = "200,200,500,100,50,50,100"
# Node 11 random traffic
dtnsim.node[11].app.enable = true
dtnsim.node[11].app.bundlesNumber = "13,25,4,11,18,21,4,1,2,1"
dtnsim.node[11].app.start = "68,55,50,29,8,54,84,22,23,6"
dtnsim.node[11].app.destinationEid = "145,26,145,83,7,5,165,56,6,6"
dtnsim.node[11].app.size = "100,100,50,100,100,50,100,50,500,50"
# Node 12 random traffic
dtnsim.node[12].app.enable = true
dtnsim.node[12].app.bundlesNumber = "23,16,7,23,16,12,2,1"
dtnsim.node[12].app.start = "71,33,31,30,36,8,10,52"
dtnsim.node[12].app.destinationEid = "178,3,158,154,21,154,115,75"
dtnsim.node[12].app.size = "500,100,100,500,50,200,500,500"
# Node 13 random traffic
dtnsim.node[13].app.enable = true
dtnsim.node[13].app.bundlesNumber = "18,3,10,1,25,4,12,14,5,8"
dtnsim.node[13].app.start = "26,95,77,7,33,71,39,63,19,36"
dtnsim.node[13].app.destinationEid = "17,10,49,4,143,152,172,90,73,16"
dtnsim.node[13].app.size = "50,50,50,50,500,500,200,100,100,500"
# Node 14 random traffic
dtnsim.node[14].app.enable = true
dtnsim.node[14].app.bundlesNumber = "9,15,3,1,8,24,2,21,12,4,1"
dtnsim.node[14].app.start = "85,17,90,35,46,100,35,32,55,32,20"
dtnsim.node[14].app.destinationEid = "118,17,157,49,75,79,37,19,163,81,37"
dtnsim.node[14].app.size = "100,500,500,100,50,200,500,500,50,100,100"
# Node 15 random traffic
dtnsim.node[15].app.enable = true
dtnsim.node[15].app.bundlesNumber = "25,10,19,14,3,16,3,8,1,1"
dtnsim.node[15].app.start = "88,23,49,31,15,96,12,54,88,7"
dtnsim.node[15].app.destinationEid = "68,136,118,174,13,140,117,147,74,148"
dtnsim.node[15].app.size = "50,500,50,200,100,100,200,100,500,100"
# Node 16 random traffic
dtnsim.node[16].app.enable = true
dtnsim.node[16].app.bundlesNumber = "7,16,5,19,19,23,4,1,5,1"
dtnsim.node[16].app.start = "90,37,72,71,18,73,24,8,32,85"
dtnsim.node[16].app.destinationEid = "146,115,19,59,131,65,48,131,37,81"
dtnsim.node[16].app.size = "50,50,50,100,500,50,500,200,100,500"
# Node 17 random traffic
dtnsim.node[17].app.enable = true
dtnsim.node[17].app.bundlesNumber = "1,16,8,6,19,23,14,13"
dtnsim.node[17].app.start = "17,3,48,3,44,96,99,84"
dtnsim.node[17].app.destinationEid = "69,12,155,38,76,105,39,93"
dtnsim.node[17].app.size = "500,200,200,100,200,50,100,50"
# Node 18 random traffic
dtnsim.node[18].app.enable = true
dtnsim.node[18].app.bundlesNumber = "3,24,2,23,14,18,16"
dtnsim.node[18].app.start = "11,75,79,73,40,76,81"
dtnsim.node[18].app.destinationEid = "22,61,118,113,133,72,171"
dtnsim.node[18].app.size = "500,100,50,100,50,500,500"
# Node 19 random traffic
dtnsim.node[19].app.enable = true
dtnsim.node[19].app.bundlesNumber = "14,18,25,2,6,9,15,10,1"
dtnsim.node[19].app.start = "60,61,17,25,67,6,25,39,81"
dtnsim.node[19].app.destinationEid = "168,138,67,81,62,93,136,6,60"
dtnsim.node[19].app.size = "200,50,200,500,500,500,200,100,200"
# Node 20 random traffic
dtnsim.node[20].app.enable = true
dtnsim.node[20].app.bundlesNumber = "15,6,8,8,6,8,4,20,17,8"
dtnsim.node[20].app.start = "96,17,54,92,42,50,79,78,45,53"
dtnsim.node[20].app.destinationEid = "103,32,153,39,176,165,48,159,34,83"
dtnsim.node[20].app.size = "50,500,50,50,50,500,200,200,100,50"
# Node 21 random traffic
dtnsim.node[21].app.enable = true
dtnsim.node[21].app.bundlesNumber = "4,14,21,1,13,20,13,14"
dtnsim.node[21].app.start = "31,50,89,12,53,36,13,73"
dtnsim.node[21].app.destinationEid = "79,16,13,44,101,162,33,162"
dtnsim.node[21].app.size = "200,200,50,200,500,200,50,50"
# Node 22 random traffic
dtnsim.node[22].app.enable = true
dtnsim.node[22].app.bundlesNumber = "25,19,1,19,10,24,1,1"
dtnsim.node[22].app.start = "79,99,19,55,55,55,7,31"
dtnsim.node[22].app.destinationEid = "58,130,114,93,143,30,20,178"
dtnsim.node[22].app.size = "50,200,500,200,50,100,100,100"
# Node 23 random traffic
dtnsim.node[23].app.enable = true
dtnsim.node[23].app.bundlesNumber = "7,3,16,13,1,3,17,13,8,11,2,3,2,1"
dtnsim.node[23].app.start = "13,51,1,24,38,99,79,83,89,87,72,70,27,38"
dtnsim.node[23].app.destinationEid = "173,132,31,164,152,33,70,59,161,6,41,37,121,100"
dtnsim.node[23].app.size = "200,50,100,50,100,100,200,100,500,200,50,200,100,200"
# Node 24 random traffic
dtnsim.node[24].app.enable = true
dtnsim.node[24].app.bundlesNumber = "24,16,20,13,8,9,2,4,2,2"
dtnsim.node[24].app.start = "30,7,3,62,21,98,54,55,86,16"
dtnsim.node[24].app.destinationEid = "58,53,56,161,133,63,64,3,168,44"
dtnsim.node[24].app.size = "200,200,500,50,100,100,200,100,200,50"
# Node 25 random traffic
dtnsim.node[25].app.enable = true
dtnsim.node[25].app.bundlesNumber = "23,20,16,11,8,14,5,3"
dtnsim.node[25].app.start = "4,30,51,94,38,84,85,28"
dtnsim.node[25].app.destinationEid = "9,165,43,92,161,96,80,86"
dtnsim.node[25].app.size = "200,100,100,100,200,50,500,200"
# Node 26 random traffic
dtnsim.node[26].app.enable = true
dtnsim.node[26].app.bundlesNumber = "20,2,4,21,15,19,13,5,1"
dtnsim.node[26].app.start = "50,10,43,93,46,77,28,10,75"
dtnsim.node[26].app.destinationEid = "8,136,5,46,173,167,176,91,91"
dtnsim.node[26].app.size = "200,100,50,200,50,100,100,50,50"
# Node 27 random traffic
dtnsim.node[27].app.enable = true
dtnsim.node[27].app.bundlesNumber = "14,23,19,22,17,1,4"
dtnsim.node[27].app.start = "72,84,35,18,18,99,8"
dtnsim.node[27].app.destinationEid = "44,57,153,94,62,70,29"
dtnsim.node[27].app.size = "50,500,100,500,200,500,200"
# Node 28 random traffic
dtnsim.node[28].app.enable = true
dtnsim.node[28].app.bundlesNumber = "19,13,6,24,5,15,6,10,1,1"
dtnsim.node[28].app.start = "28,100,96,30,11,87,68,1,87,4"
dtnsim.node[28].app.destinationEid = "33,150,88,118,9,72,169,76,20,89"
dtnsim.node[28].app.size = "50,200,200,200,50,100,200,100,200,200"
# Node 29 random traffic
dtnsim.node[29].app.enable = true
dtnsim.node[29].app.bundlesNumber = "25,20,10,25,10,2,1,6,1"
dtnsim.node[29].app.start = "96,8,36,91,1,36,72,15,52"
dtnsim.node[29].app.destinationEid = "4,178,166,120,60,13,31,104,27"
dtnsim.node[29].app.size = "200,50,100,50,200,50,200,100,200"
# Node 30 random traffic
dtnsim.node[30].app.enable = true
dtnsim.node[30].app.bundlesNumber = "10,17,5,16,3,22,21,4,2"
dtnsim.node[30].app.start = "32,32,70,90,47,34,31,20,95"
dtnsim.node[30].app.destinationEid = "138,44,88,164,179,75,67,61,161"
dtnsim.node[30].app.size = "200,200,100,50,100,50,500,200,100"
# Node 31 random traffic
dtnsim.node[31].app.enable = true
dtnsim.node[31].app.bundlesNumber = "19,19,23,22,6,1,3,3,1,1,2"
dtnsim.node[31].app.start = "39,32,25,64,58,86,25,22,21,72,58"
dtnsim.node[31].app.destinationEid = "52,100,139,65,127,28,79,121,133,154,157"
dtnsim.node[31].app.size = "50,200,100,500,200,500,50,200,50,50,500"
# Node 32 random traffic
dtnsim.node[32].app.enable = true
dtnsim.node[32].app.bundlesNumber = "6,4,7,22,20,4,5,2,23,3,2,2"
dtnsim.node[32].app.start = "43,9,31,86,79,19,32,10,13,24,80,4"
dtnsim.node[32].app.destinationEid = "145,73,150,79,166,176,57,49,133,110,154,155"
dtnsim.node[32].app.size = "200,200,50,200,100,50,200,500,100,200,200,500"
# Node 33 random traffic
dtnsim.node[33].app.enable = true
dtnsim.node[33].app.bundlesNumber = "17,1,25,14,23,20"
dtnsim.node[33].app.start = "72,76,26,16,94,46"
dtnsim.node[33].app.destinationEid = "117,100,118,85,47,151"
dtnsim.node[33].app.size = "50,100,100,200,500,500"
# Node 34 random traffic
dtnsim.node[34].app.enable = true
dtnsim.node[34].app.bundlesNumber = "10,10,2,25,15,5,10,16,6,1"
dtnsim.node[34].app.start = "55,83,3,42,24,93,46,44,1,99"
dtnsim.node[34].app.destinationEid = "69,100,149,2,95,45,21,40,134,102"
dtnsim.node[34].app.size = "500,50,100,200,500,500,500,200,200,100"
# Node 35 random traffic
dtnsim.node[35].app.enable = true
dtnsim.node[35].app.bundlesNumber = "19,9,8,2,10,17,7,5,10,11,1,1"
dtnsim.node[35].app.start = "71,40,23,59,45,11,35,84,27,15,35,43"
dtnsim.node[35].app.destinationEid = "33,43,83,125,48,84,119,161,89,114,7,115"
dtnsim.node[35].app.size = "200,100,100,50,100,200,500,50,500,100,100,200"
# Node 36 random traffic
dtnsim.node[36].app.enable = true
dtnsim.node[36].app.bundlesNumber = "14,7,17,6,20,11,19,5,1"
dtnsim.node[36].app.start = "20,85,23,30,7,59,100,46,59"
dtnsim.node[36].app.destinationEid = "167,87,78,157,148,150,15,83,51"
dtnsim.node[36].app.size = "500,50,200,50,200,100,100,500,200"
# Node 37 random traffic
dtnsim.node[37].app.enable = true
dtnsim.node[37].app.bundlesNumber = "23,21,22,19,3,4,5,3"
dtnsim.node[37].app.start = "93,51,100,36,87,33,3,72"
dtnsim.node[37].app.destinationEid = "155,23,45,48,169,138,107,152"
dtnsim.node[37].app.size = "100,500,100,50,500,200,200,500"
# Node 38 random traffic
dtnsim.node[38].app.enable = true
dtnsim.node[38].app.bundlesNumber = "9,23,22,1,6,13,2,16,8"
dtnsim.node[38].app.start = "15,48,19,19,49,67,12,59,79"
dtnsim.node[38].app.destinationEid = "173,64,42,86,2,141,91,60,67"
dtnsim.node[38].app.size = "100,50,200,100,200,200,200,50,200"
# Node 39 random traffic
dtnsim.node[39].app.enable = true
dtnsim.node[39].app.bundlesNumber = "15,3,3,1,11,20,6,16,11,7,6,1"
dtnsim.node[39].app.start = "52,9,5,4,36,10,56,9,71,12,38,5"
dtnsim.node[39].app.destinationEid = "67,6,149,133,133,62,86,152,3,108,168,45"
dtnsim.node[39].app.size = "500,100,100,200,50,500,100,200,100,50,200,200"
# Node 40 random traffic
dtnsim.node[40].app.enable = true
dtnsim.node[40].app.bundlesNumber = "2,22,21,9,17,2,19,6,2"
dtnsim.node[40].app.start = "49,89,38,79,3,83,65,96,23"
dtnsim.node[40].app.destinationEid = "14,172,132,41,147,25,127,17,31"
dtnsim.node[40].app.size = "200,200,500,500,200,100,500,50,50"
# Node 41 random traffic
dtnsim.node[41].app.enable = true
dtnsim.node[41].app.bundlesNumber = "22,21,12,5,18,15,1,4,1,1"
dtnsim.node[41].app.start = "81,17,17,55,92,74,13,51,44,67"
dtnsim.node[41].app.destinationEid = "117,100,32,77,95,36,23,83,83,45"
dtnsim.node[41].app.size = "100,100,100,200,200,500,50,500,50,50"
# Node 42 random traffic
dtnsim.node[42].app.enable = true
dtnsim.node[42].app.bundlesNumber = "8,13,3,20,21,16,8,5,6"
dtnsim.node[42].app.start = "45,69,14,60,46,89,75,81,18"
dtnsim.node[42].app.destinationEid = "81,132,122,151,43,84,129,147,70"
dtnsim.node[42].app.size = "500,100,100,100,500,500,100,200,500"
# Node 43 random traffic
dtnsim.node[43].app.enable = true
dtnsim.node[43].app.bundlesNumber = "8,19,9,15,18,21,6,2,2"
dtnsim.node[43].app.start = "94,21,38,70,21,66,84,63,46"
dtnsim.node[43].app.destinationEid = "86,84,11,99,137,167,91,123,52"
dtnsim.node[43].app.size = "100,50,50,200,100,50,100,50,50"
# Node 44 random traffic
dtnsim.node[44].app.enable = true
dtnsim.node[44].app.bundlesNumber = "25,6,20,23,19,4,2,1"
dtnsim.node[44].app.start = "38,5,52,77,95,2,39,49"
dtnsim.node[44].app.destinationEid = "34,152,121,132,11,39,107,53"
dtnsim.node[44].app.size = "100,200,50,50,500,200,500,500"
# Node 45 random traffic
dtnsim.node[45].app.enable = true
dtnsim.node[45].app.bundlesNumber = "19,16,5,5,13,8,2,12,19,1"
dtnsim.node[45].app.start = "99,40,78,8,3,47,27,52,21,47"
dtnsim.node[45].app.destinationEid = "66,42,127,88,38,171,9,139,109,31"
dtnsim.node[45].app.size = "200,50,200,100,100,500,100,500,100,500"
# Node 46 random traffic
dtnsim.node[46].app.enable = true
dtnsim.node[46].app.bundlesNumber = "17,23,13,12,3,23,8,1"
dtnsim.node[46].app.start = "25,70,100,16,10,58,76,36"
dtnsim.node[46].app.destinationEid = "149,67,159,130,60,155,118,112"
dtnsim.node[46].app.size = "500,100,200,100,200,200,100,50"
# Node 47 random traffic
dtnsim.node[47].app.enable = true
dtnsim.node[47].app.bundlesNumber = "8,2,5,15,11,23,6,14,16"
dtnsim.node[47].app.start = "14,40,41,31,11,54,65,88,98"
dtnsim.node[47].app.destinationEid = "18,97,121,169,113,33,2,76,63"
dtnsim.node[47].app.size = "500,500,500,200,500,500,200,100,100"
# Node 48 random traffic
dtnsim.node[48].app.enable = true
dtnsim.node[48].app.bundlesNumber = "11,5,2,2,24,3,15,24,2,12"
dtnsim.node[48].app.start = "56,90,85,26,21,29,63,9,12,9"
dtnsim.node[48].app.destinationEid = "22,39,69,118,17,103,38,60,170,136"
dtnsim.node[48].app.size = "200,50,100,100,50,200,50,100,100,200"
# Node 49 random traffic
dtnsim.node[49].app.enable = true
dtnsim.node[49].app.bundlesNumber = "12,25,25,13,4,5,4,10,1,1"
dtnsim.node[49].app.start = "43,59,94,52,12,88,2,81,36,4"
dtnsim.node[49].app.destinationEid = "67,87,172,72,173,5,64,70,157,30"
dtnsim.node[49].app.size = "100,50,200,500,100,100,500,100,50,100"
# Node 50 random traffic
dtnsim.node[50].app.enable = true
dtnsim.node[50].app.bundlesNumber = "5,4,9,18,2,6,10,17,22,7"
dtnsim.node[50].app.start = "26,14,12,11,41,92,84,51,72,67"
dtnsim.node[50].app.destinationEid = "130,129,77,176,36,105,69,78,104,94"
dtnsim.node[50].app.size = "500,100,100,500,100,200,500,100,100,50"
# Node 51 random traffic
dtnsim.node[51].app.enable = true
dtnsim.node[51].app.bundlesNumber = "18,9,22,22,23,1,3,1,1"
dtnsim.node[51].app.start = "67,9,17,4,5,86,89,50,50"
dtnsim.node[51].app.destinationEid = "137,80,72,108,105,100,2,20,115"
dtnsim.node[51].app.size = "50,500,200,500,500,100,100,50,500"
# Node 52 random traffic
dtnsim.node[52].app.enable = true
dtnsim.node[52].app.bundlesNumber = "9,16,12,13,7,15,17,3,7,1"
dtnsim.node[52].app.start = "54,86,80,92,75,22,61,73,21,30"
dtnsim.node[52].app.destinationEid = "59,13,133,89,41,136,7,62,121,117"
dtnsim.node[52].app.size = "100,500,50,100,200,50,200,500,500,100"
# Node 53 random traffic
dtnsim.node[53].app.enable = true
dtnsim.node[53].app.bundlesNumber = "23,19,23,7,25,1,2"
dtnsim.node[53].app.start = "55,98,92,42,76,74,71"
dtnsim.node[53].app.destinationEid = "171,126,170,160,92,46,70"
dtnsim.node[53].app.size = "200,50,200,50,200,200,100"
# Node 54 random traffic
dtnsim.node[54].app.enable = true
dtnsim.node[54].app.bundlesNumber = "4,6,12,17,10,7,14,10,1,10,4,3,1,1"
dtnsim.node[54].app.start = "91,88,74,35,12,17,2,46,90,53,18,19,88,29"
dtnsim.node[54].app.destinationEid = "147,36,91,97,98,6,64,45,102,170,92,60,81,167"
dtnsim.node[54].app.size = "500,50,200,50,200,200,200,50,200,200,200,200,500,50"
# Node 55 random traffic
dtnsim.node[55].app.enable = true
dtnsim.node[55].app.bundlesNumber = "2,12,11,18,1,1,9,15,11,5,14,1"
dtnsim.node[55].app.start = "73,63,35,39,30,72,68,98,25,82,71,37"
dtnsim.node[55].app.destinationEid = "37,121,23,48,15,177,9,137,126,76,133,63"
dtnsim.node[55].app.size = "50,100,50,50,50,100,100,50,200,100,100,500"
# Node 56 random traffic
dtnsim.node[56].app.enable = true
dtnsim.node[56].app.bundlesNumber = "23,16,13,7,15,8,11,7"
dtnsim.node[56].app.start = "51,71,80,56,78,63,71,48"
dtnsim.node[56].app.destinationEid = "165,141,12,6,107,99,67,121"
dtnsim.node[56].app.size = "500,500,50,100,200,500,50,200"
# Node 57 random traffic
dtnsim.node[57].app.enable = true
dtnsim.node[57].app.bundlesNumber = "22,11,13,21,11,15,5,1,1"
dtnsim.node[57].app.start = "9,86,25,18,65,32,56,26,71"
dtnsim.node[57].app.destinationEid = "160,156,162,106,27,133,127,50,146"
dtnsim.node[57].app.size = "50,200,500,200,100,100,50,200,100"
# Node 58 random traffic
dtnsim.node[58].app.enable = true
dtnsim.node[58].app.bundlesNumber = "14,25,21,7,18,14,1"
dtnsim.node[58].app.start = "94,3,82,79,18,54,37"
dtnsim.node[58].app.destinationEid = "20,70,104,172,3,70,23"
dtnsim.node[58].app.size = "50,50,200,200,200,200,50"
# Node 59 random traffic
dtnsim.node[59].app.enable = true
dtnsim.node[59].app.bundlesNumber = "7,16,7,19,19,18,7,6,1"
dtnsim.node[59].app.start = "90,28,21,91,23,98,88,60,14"
dtnsim.node[59].app.destinationEid = "99,107,142,31,16,177,89,124,145"
dtnsim.node[59].app.size = "500,200,100,100,50,200,500,200,100"
# Node 60 random traffic
dtnsim.node[60].app.enable = true
dtnsim.node[60].app.bundlesNumber = "12,9,20,18,5,9,1,2,15,9"
dtnsim.node[60].app.start = "36,12,50,17,19,77,62,95,73,99"
dtnsim.node[60].app.destinationEid = "6,104,39,67,179,144,133,176,16,79"
dtnsim.node[60].app.size = "200,50,500,500,50,50,500,500,50,100"
# Node 61 random traffic
dtnsim.node[61].app.enable = true
dtnsim.node[61].app.bundlesNumber = "8,14,15,10,18,13,4,3,11,3,1"
dtnsim.node[61].app.start = "79,84,2,74,47,63,92,49,71,94,76"
dtnsim.node[61].app.destinationEid = "170,40,73,91,109,75,24,29,98,106,131"
dtnsim.node[61].app.size = "100,50,200,500,200,50,200,500,50,100,100"
# Node 62 random traffic
dtnsim.node[62].app.enable = true
dtnsim.node[62].app.bundlesNumber = "19,5,6,9,7,15,24,15"
dtnsim.node[62].app.start = "9,91,93,18,76,50,54,21"
dtnsim.node[62].app.destinationEid = "132,37,175,107,85,99,157,51"
dtnsim.node[62].app.size = "100,100,200,200,100,200,500,200"
# Node 63 random traffic
dtnsim.node[63].app.enable = true
dtnsim.node[63].app.bundlesNumber = "8,7,22,15,21,14,7,3,1,1,1"
dtnsim.node[63].app.start = "89,83,43,7,69,5,62,65,50,96,41"
dtnsim.node[63].app.destinationEid = "145,138,51,160,1,116,157,149,140,180,83"
dtnsim.node[63].app.size = "200,100,500,50,50,200,100,50,200,200,200"
# Node 64 random traffic
dtnsim.node[64].app.enable = true
dtnsim.node[64].app.bundlesNumber = "20,8,18,7,25,11,3,4,3,1"
dtnsim.node[64].app.start = "24,28,75,22,95,28,51,60,18,1"
dtnsim.node[64].app.destinationEid = "55,42,177,91,157,22,163,59,53,65"
dtnsim.node[64].app.size = "200,200,50,500,50,50,100,100,50,200"
# Node 65 random traffic
dtnsim.node[65].app.enable = true
dtnsim.node[65].app.bundlesNumber = "19,21,16,16,23,4,1"
dtnsim.node[65].app.start = "81,98,21,16,4,17,56"
dtnsim.node[65].app.destinationEid = "161,126,157,168,30,122,11"
dtnsim.node[65].app.size = "200,200,200,200,50,50,50"
# Node 66 random traffic
dtnsim.node[66].app.enable = true
dtnsim.node[66].app.bundlesNumber = "19,7,4,1,6,19,13,20,9,1,1"
dtnsim.node[66].app.start = "66,42,78,69,77,67,91,93,44,65,69"
dtnsim.node[66].app.destinationEid = "10,94,5,72,140,170,110,90,130,11,71"
dtnsim.node[66].app.size = "500,500,200,50,100,500,100,500,100,50,200"
# Node 67 random traffic
dtnsim.node[67].app.enable = true
dtnsim.node[67].app.bundlesNumber = "15,19,8,10,4,21,1,18,3,1"
dtnsim.node[67].app.start = "63,9,31,33,17,93,15,59,91,48"
dtnsim.node[67].app.destinationEid = "99,27,71,163,73,38,57,168,54,83"
dtnsim.node[67].app.size = "200,50,200,500,200,500,500,200,50,500"
# Node 68 random traffic
dtnsim.node[68].app.enable = true
dtnsim.node[68].app.bundlesNumber = "11,15,23,1,2,17,24,7"
dtnsim.node[68].app.start = "86,63,66,98,47,75,66,31"
dtnsim.node[68].app.destinationEid = "152,107,126,54,158,53,35,36"
dtnsim.node[68].app.size = "500,200,50,50,200,100,200,50"
# Node 69 random traffic
dtnsim.node[69].app.enable = true
dtnsim.node[69].app.bundlesNumber = "8,8,17,7,5,13,3,23,11,5"
dtnsim.node[69].app.start = "86,19,4,44,66,74,33,11,40,19"
dtnsim.node[69].app.destinationEid = "83,111,2,10,150,168,71,33,112,148"
dtnsim.node[69].app.size = "500,100,50,50,100,50,500,500,200,200"
# Node 70 random traffic
dtnsim.node[70].app.enable = true
dtnsim.node[70].app.bundlesNumber = "17,16,4,3,13,13,20,14"
dtnsim.node[70].app.start = "96,65,31,97,66,12,95,40"
dtnsim.node[70].app.destinationEid = "7,46,176,3,104,72,4,48"
dtnsim.node[70].app.size = "200,200,200,50,100,50,200,200"
# Node 71 random traffic
dtnsim.node[71].app.enable = true
dtnsim.node[71].app.bundlesNumber = "3,2,18,21,10,20,20,2,1,1,1,1"
dtnsim.node[71].app.start = "81,42,42,14,16,20,50,65,70,63,42,38"
dtnsim.node[71].app.destinationEid = "155,172,136,7,172,32,140,87,31,4,143,83"
dtnsim.node[71].app.size = "50,50,100,200,200,50,200,200,50,200,100,500"
# Node 72 random traffic
dtnsim.node[72].app.enable = true
dtnsim.node[72].app.bundlesNumber = "7,1,22,25,1,20,20,1,3"
dtnsim.node[72].app.start = "64,18,12,34,79,77,78,82,96"
dtnsim.node[72].app.destinationEid = "139,89,147,151,33,151,84,152,124"
dtnsim.node[72].app.size = "100,50,500,200,500,200,100,200,50"
# Node 73 random traffic
dtnsim.node[73].app.enable = true
dtnsim.node[73].app.bundlesNumber = "6,13,19,16,6,17,20,1,1,1"
dtnsim.node[73].app.start = "22,9,31,66,87,69,51,29,20,55"
dtnsim.node[73].app.destinationEid = "146,25,137,46,162,108,58,128,137,109"
dtnsim.node[73].app.size = "100,50,200,50,200,200,100,200,50,500"
# Node 74 random traffic
dtnsim.node[74].app.enable = true
dtnsim.node[74].app.bundlesNumber = "25,23,12,13,3,13,2,4,5"
dtnsim.node[74].app.start = "86,18,51,73,56,42,15,10,66"
dtnsim.node[74].app.destinationEid = "131,136,15,93,55,33,84,45,29"
dtnsim.node[74].app.size = "200,50,200,50,200,100,500,200,100"
# Node 75 random traffic
dtnsim.node[75].app.enable = true
dtnsim.node[75].app.bundlesNumber = "11,9,1,4,13,16,21,4,13,8"
dtnsim.node[75].app.start = "33,33,96,10,26,44,32,67,30,50"
dtnsim.node[75].app.destinationEid = "10,62,162,100,90,139,153,79,177,111"
dtnsim.node[75].app.size = "500,200,200,200,500,500,100,200,100,200"
# Node 76 random traffic
dtnsim.node[76].app.enable = true
dtnsim.node[76].app.bundlesNumber = "25,13,8,20,10,13,9,1,1"
dtnsim.node[76].app.start = "35,56,82,16,69,100,59,79,65"
dtnsim.node[76].app.destinationEid = "27,27,134,121,41,45,70,173,161"
dtnsim.node[76].app.size = "100,50,500,500,50,100,500,100,500"
# Node 77 random traffic
dtnsim.node[77].app.enable = true
dtnsim.node[77].app.bundlesNumber = "14,24,9,2,9,2,13,14,10,1,1,1"
dtnsim.node[77].app.start = "22,79,22,38,17,38,37,57,69,10,1,5"
dtnsim.node[77].app.destinationEid = "39,125,29,61,121,121,56,47,138,169,106,56"
dtnsim.node[77].app.size = "500,500,200,500,500,200,500,500,500,100,100,200"
# Node 78 random traffic
dtnsim.node[78].app.enable = true
dtnsim.node[78].app.bundlesNumber = "7,5,17,14,2,11,17,6,15,4,2"
dtnsim.node[78].app.start = "10,57,3,74,37,35,35,30,31,64,62"
dtnsim.node[78].app.destinationEid = "171,166,151,105,165,105,98,162,172,60,165"
dtnsim.node[78].app.size = "50,50,500,500,50,200,100,100,500,500,500"
# Node 79 random traffic
dtnsim.node[79].app.enable = true
dtnsim.node[79].app.bundlesNumber = "23,20,11,19,19,6,2"
dtnsim.node[79].app.start = "16,11,30,31,20,78,69"
dtnsim.node[79].app.destinationEid = "136,78,133,22,9,35,142"
dtnsim.node[79].app.size = "500,500,500,100,200,50,200"
# Node 80 random traffic
dtnsim.node[80].app.enable = true
dtnsim.node[80].app.bundlesNumber = "11,14,22,22,25,3,3"
dtnsim.node[80].app.start = "71,64,58,57,86,53,95"
dtnsim.node[80].app.destinationEid = "170,66,139,146,123,49,77"
dtnsim.node[80].app.size = "50,100,200,100,50,50,500"
# Node 81 random traffic
dtnsim.node[81].app.enable = true
dtnsim.node[81].app.bundlesNumber = "13,15,16,25,22,8,1"
dtnsim.node[81].app.start = "12,66,29,88,7,5,10"
dtnsim.node[81].app.destinationEid = "118,131,111,134,10,167,101"
dtnsim.node[81].app.size = "50,200,500,50,200,200,500"
# Node 82 random traffic
dtnsim.node[82].app.enable = true
dtnsim.node[82].app.bundlesNumber = "8,5,14,12,11,9,6,8,2,5,18,1,1"
dtnsim.node[82].app.start = "27,30,27,56,43,21,26,95,78,10,22,67,61"
dtnsim.node[82].app.destinationEid = "125,54,123,145,3,24,63,8,15,16,172,166,74"
dtnsim.node[82].app.size = "100,50,50,100,500,100,100,200,500,500,200,50,500"
# Node 83 random traffic
dtnsim.node[83].app.enable = true
dtnsim.node[83].app.bundlesNumber = "1,18,10,20,13,25,12,1"
dtnsim.node[83].app.start = "35,27,93,9,63,23,33,57"
dtnsim.node[83].app.destinationEid = "30,130,148,74,9,12,9,35"
dtnsim.node[83].app.size = "200,100,100,200,500,500,500,200"
# Node 84 random traffic
dtnsim.node[84].app.enable = true
dtnsim.node[84].app.bundlesNumber = "24,22,25,23,1,1,2,2"
dtnsim.node[84].app.start = "19,40,41,14,7,52,6,92"
dtnsim.node[84].app.destinationEid = "78,147,163,160,168,161,118,116"
dtnsim.node[84].app.size = "200,50,100,50,50,50,200,200"
# Node 85 random traffic
dtnsim.node[85].app.enable = true
dtnsim.node[85].app.bundlesNumber = "9,12,14,20,6,4,3,25,6,1"
dtnsim.node[85].app.start = "66,59,81,4,35,43,92,30,97,64"
dtnsim.node[85].app.destinationEid = "51,52,69,86,50,119,67,7,130,86"
dtnsim.node[85].app.size = "200,500,500,200,200,100,200,50,50,100"
# Node 86 random traffic
dtnsim.node[86].app.enable = true
dtnsim.node[86].app.bundlesNumber = "25,20,21,9,11,4,5,4,1"
dtnsim.node[86].app.start = "34,20,89,15,34,48,3,40,80"
dtnsim.node[86].app.destinationEid = "150,21,3,40,153,152,98,73,128"
dtnsim.node[86].app.size = "500,100,100,200,100,500,500,100,50"
# Node 87 random traffic
dtnsim.node[87].app.enable = true
dtnsim.node[87].app.bundlesNumber = "13,22,19,25,17,1,3"
dtnsim.node[87].app.start = "37,35,99,29,80,94,81"
dtnsim.node[87].app.destinationEid = "55,39,139,85,163,71,140"
dtnsim.node[87].app.size = "100,200,500,500,200,500,500"
# Node 88 random traffic
dtnsim.node[88].app.enable = true
dtnsim.node[88].app.bundlesNumber = "3,8,11,8,3,4,14,1,23,21,1,2,1"
dtnsim.node[88].app.start = "87,19,59,20,49,57,10,90,27,85,7,56,5"
dtnsim.node[88].app.destinationEid = "172,102,95,2,29,18,40,58,73,157,4,40,147"
dtnsim.node[88].app.size = "100,500,200,100,50,200,200,200,500,100,500,50,500"
# Node 89 random traffic
dtnsim.node[89].app.enable = true
dtnsim.node[89].app.bundlesNumber = "23,14,23,10,18,3,3,4,1,1"
dtnsim.node[89].app.start = "86,21,36,12,40,27,51,10,74,24"
dtnsim.node[89].app.destinationEid = "176,23,30,32,139,23,103,164,2,15"
dtnsim.node[89].app.size = "100,200,50,100,500,100,100,100,50,100"
# Node 90 random traffic
dtnsim.node[90].app.enable = true
dtnsim.node[90].app.bundlesNumber = "17,18,12,9,13,11,4,11,2,3"
dtnsim.node[90].app.start = "17,88,100,42,53,90,29,93,88,7"
dtnsim.node[90].app.destinationEid = "163,122,138,68,54,162,114,21,123,20"
dtnsim.node[90].app.size = "50,50,200,200,500,200,100,100,100,50"
# Node 91 random traffic
dtnsim.node[91].app.enable = true
dtnsim.node[91].app.bundlesNumber = "20,20,12,22,1,15,10"
dtnsim.node[91].app.start = "79,38,60,86,82,43,93"
dtnsim.node[91].app.destinationEid = "125,152,98,28,138,90,145"
dtnsim.node[91].app.size = "500,200,100,100,100,50,200"
# Node 92 random traffic
dtnsim.node[92].app.enable = true
dtnsim.node[92].app.bundlesNumber = "22,13,21,18,6,3,13,2,2"
dtnsim.node[92].app.start = "58,1,91,2,40,57,53,61,22"
dtnsim.node[92].app.destinationEid = "28,157,118,28,140,96,113,19,60"
dtnsim.node[92].app.size = "500,500,200,50,100,50,50,200,200"
# Node 93 random traffic
dtnsim.node[93].app.enable = true
dtnsim.node[93].app.bundlesNumber = "20,6,18,3,12,18,14,5,4"
dtnsim.node[93].app.start = "86,56,46,11,97,11,58,90,45"
dtnsim.node[93].app.destinationEid = "156,118,24,64,179,34,43,128,90"
dtnsim.node[93].app.size = "50,500,500,50,100,500,50,100,200"
# Node 94 random traffic
dtnsim.node[94].app.enable = true
dtnsim.node[94].app.bundlesNumber = "13,5,2,6,12,16,24,3,15,2,1,1"
dtnsim.node[94].app.start = "29,90,34,56,2,31,38,58,66,19,65,78"
dtnsim.node[94].app.destinationEid = "72,67,64,122,162,111,158,73,49,17,62,20"