[General]
network = src.dtnsim										
repeat = 1
allow-object-stealing-on-deletion = true

# Simulation end time
sim-time-limit = 84600s

# Nodes quantity (identifiers (EiDs) matches their index, EiD=0 is ignored)			
dtnsim.nodesNumber = 240
dtnsim.node[*].icon = "satellite"

# Nodes's failure rates
dtnsim.node[*].fault.enable = true
dtnsim.node[*].fault.meanTTF = 40s
dtnsim.node[*].fault.meanTTR = 10s

dtnsim.node[*].dtn.routing = "cgrModel350"
dtnsim.node[*].dtn.printRoutingDebug = true

# --- Random Traffic Configuration ---
# Node 1 random traffic
dtnsim.node[1].app.enable = true
dtnsim.node[1].app.bundlesNumber = "6,22,23,15,1,23,2,6,2"
dtnsim.node[1].app.start = "31,59,93,56,60,99,97,38,94"
dtnsim.node[1].app.destinationEid = "45,127,185,213,71,190,175,31,149"
dtnsim.node[1].app.size = "200,50,200,100,50,500,100,200,200"
# Node 2 random traffic
dtnsim.node[2].app.enable = true
dtnsim.node[2].app.bundlesNumber = "10,17,23,25,23,2"
dtnsim.node[2].app.start = "27,35,71,97,78,47"
dtnsim.node[2].app.destinationEid = "174,157,227,71,115,182"
dtnsim.node[2].app.size = "500,500,500,500,500,500"
# Node 3 random traffic
dtnsim.node[3].app.enable = true
dtnsim.node[3].app.bundlesNumber = "13,7,9,17,6,13,9,7,17,2"
dtnsim.node[3].app.start = "15,56,53,15,82,94,61,73,96,13"
dtnsim.node[3].app.destinationEid = "177,115,54,71,84,122,181,64,43,24"
dtnsim.node[3].app.size = "100,100,50,100,50,50,200,500,100,50"
# Node 4 random traffic
dtnsim.node[4].app.enable = true
dtnsim.node[4].app.bundlesNumber = "9,9,21,19,21,8,3,4,2,3,1"
dtnsim.node[4].app.start = "92,86,50,35,54,53,90,87,93,82,78"
dtnsim.node[4].app.destinationEid = "182,150,116,220,27,195,123,24,149,15,190"
dtnsim.node[4].app.size = "500,50,200,100,100,50,50,100,100,100,200"
# Node 5 random traffic
dtnsim.node[5].app.enable = true
dtnsim.node[5].app.bundlesNumber = "21,20,7,11,15,20,2,1,3"
dtnsim.node[5].app.start = "57,3,30,40,17,55,8,55,1"
dtnsim.node[5].app.destinationEid = "211,130,195,166,231,122,109,166,77"
dtnsim.node[5].app.size = "500,50,500,500,50,200,100,100,100"
# Node 6 random traffic
dtnsim.node[6].app.enable = true
dtnsim.node[6].app.bundlesNumber = "9,3,3,2,4,4,5,21,18,21,7,1,1,1"
dtnsim.node[6].app.start = "54,81,84,52,100,63,2,97,37,55,69,34,69,54"
dtnsim.node[6].app.destinationEid = "56,208,163,71,40,236,115,126,164,21,93,12,217,176"
dtnsim.node[6].app.size = "100,50,200,200,50,500,500,50,100,200,500,200,100,500"
# Node 7 random traffic
dtnsim.node[7].app.enable = true
dtnsim.node[7].app.bundlesNumber = "17,21,13,2,10,7,19,6,3,1,1"
dtnsim.node[7].app.start = "100,29,95,69,8,47,27,69,24,10,25"
dtnsim.node[7].app.destinationEid = "26,236,188,161,84,221,69,157,91,2,141"
dtnsim.node[7].app.size = "500,100,200,500,500,50,100,50,500,100,500"
# Node 8 random traffic
dtnsim.node[8].app.enable = true
dtnsim.node[8].app.bundlesNumber = "23,2,8,13,14,2,9,18,1,1,7,2"
dtnsim.node[8].app.start = "77,44,53,29,20,56,19,14,39,29,53,82"
dtnsim.node[8].app.destinationEid = "193,137,190,169,79,35,61,214,58,7,173,219"
dtnsim.node[8].app.size = "50,200,50,200,500,500,200,500,100,100,50,200"
# Node 9 random traffic
dtnsim.node[9].app.enable = true
dtnsim.node[9].app.bundlesNumber = "18,23,1,23,23,3,5,4"
dtnsim.node[9].app.start = "3,44,4,40,53,13,3,20"
dtnsim.node[9].app.destinationEid = "206,199,139,40,162,55,203,183"
dtnsim.node[9].app.size = "100,500,500,200,50,50,50,100"
# Node 10 random traffic
dtnsim.node[10].app.enable = true
dtnsim.node[10].app.bundlesNumber = "19,23,23,10,18,7"
dtnsim.node[10].app.start = "11,46,80,49,50,17"
dtnsim.node[10].app.destinationEid = "121,96,178,4,214,19"
dtnsim.node[10].app.size = "100,200,100,100,100,100"
# Node 11 random traffic
dtnsim.node[11].app.enable = true
dtnsim.node[11].app.bundlesNumber = "20,20,11,5,1,18,24,1"
dtnsim.node[11].app.start = "64,11,93,37,85,55,49,39"
dtnsim.node[11].app.destinationEid = "138,85,193,152,41,109,106,15"
dtnsim.node[11].app.size = "50,500,200,100,200,50,200,50"
# Node 12 random traffic
dtnsim.node[12].app.enable = true
dtnsim.node[12].app.bundlesNumber = "23,1,13,1,23,5,24,10"
dtnsim.node[12].app.start = "42,21,5,84,42,75,1,11"
dtnsim.node[12].app.destinationEid = "164,139,188,166,203,33,181,47"
dtnsim.node[12].app.size = "500,500,100,500,200,500,50,200"
# Node 13 random traffic
dtnsim.node[13].app.enable = true
dtnsim.node[13].app.bundlesNumber = "8,4,18,1,7,20,5,21,14,2"
dtnsim.node[13].app.start = "52,18,95,9,59,42,63,8,7,6"
dtnsim.node[13].app.destinationEid = "213,57,140,73,39,220,12,155,56,181"
dtnsim.node[13].app.size = "50,100,100,200,100,50,100,200,500,200"
# Node 14 random traffic
dtnsim.node[14].app.enable = true
dtnsim.node[14].app.bundlesNumber = "5,22,5,11,17,25,7,1,7"
dtnsim.node[14].app.start = "26,33,43,57,30,77,45,89,77"
dtnsim.node[14].app.destinationEid = "232,190,230,234,170,104,81,95,101"
dtnsim.node[14].app.size = "500,50,200,200,50,100,50,500,50"
# Node 15 random traffic
dtnsim.node[15].app.enable = true
dtnsim.node[15].app.bundlesNumber = "24,15,16,17,21,3,4"
dtnsim.node[15].app.start = "67,36,54,6,18,86,84"
dtnsim.node[15].app.destinationEid = "156,216,5,140,67,192,120"
dtnsim.node[15].app.size = "100,100,500,500,50,200,50"
# Node 16 random traffic
dtnsim.node[16].app.enable = true
dtnsim.node[16].app.bundlesNumber = "17,5,3,14,2,10,3,6,23,10,6,1"
dtnsim.node[16].app.start = "46,57,29,85,87,56,23,12,28,22,5,55"
dtnsim.node[16].app.destinationEid = "198,228,8,97,174,6,153,68,153,197,55,190"
dtnsim.node[16].app.size = "50,100,500,100,500,500,50,100,100,500,200,500"
# Node 17 random traffic
dtnsim.node[17].app.enable = true
dtnsim.node[17].app.bundlesNumber = "10,22,2,8,11,19,20,1,5,1,1"
dtnsim.node[17].app.start = "92,62,35,91,46,26,37,51,100,30,91"
dtnsim.node[17].app.destinationEid = "182,52,86,168,43,6,220,219,214,2,223"
dtnsim.node[17].app.size = "100,100,200,50,500,50,200,100,100,100,200"
# Node 18 random traffic
dtnsim.node[18].app.enable = true
dtnsim.node[18].app.bundlesNumber = "19,4,8,9,20,10,5,6,8,10,1"
dtnsim.node[18].app.start = "42,55,15,93,72,4,59,32,94,65,70"
dtnsim.node[18].app.destinationEid = "183,14,166,156,107,82,41,202,185,15,180"
dtnsim.node[18].app.size = "100,100,500,200,500,500,500,50,100,50,200"
# Node 19 random traffic
dtnsim.node[19].app.enable = true
dtnsim.node[19].app.bundlesNumber = "22,10,3,22,3,9,11,18,1,1"
dtnsim.node[19].app.start = "95,10,24,86,69,95,43,92,39,47"
dtnsim.node[19].app.destinationEid = "138,182,150,68,179,162,69,179,129,86"
dtnsim.node[19].app.size = "200,100,500,200,200,100,200,100,200,500"
# Node 20 random traffic
dtnsim.node[20].app.enable = true
dtnsim.node[20].app.bundlesNumber = "10,12,12,2,22,4,10,8,17,3"
dtnsim.node[20].app.start = "24,68,50,18,64,11,28,53,73,90"
dtnsim.node[20].app.destinationEid = "222,44,169,163,197,152,142,32,34,85"
dtnsim.node[20].app.size = "500,100,200,200,200,200,50,100,100,200"
# Node 21 random traffic
dtnsim.node[21].app.enable = true
dtnsim.node[21].app.bundlesNumber = "12,13,21,22,1,14,11,6"
dtnsim.node[21].app.start = "30,94,29,64,61,31,81,30"
dtnsim.node[21].app.destinationEid = "20,74,154,17,12,45,196,42"
dtnsim.node[21].app.size = "100,500,50,200,50,200,100,100"
# Node 22 random traffic
dtnsim.node[22].app.enable = true
dtnsim.node[22].app.bundlesNumber = "1,22,4,17,19,17,14,1,5"
dtnsim.node[22].app.start = "49,78,95,93,12,87,38,11,67"
dtnsim.node[22].app.destinationEid = "210,74,39,162,107,197,66,14,21"
dtnsim.node[22].app.size = "100,50,100,200,200,100,100,500,500"
# Node 23 random traffic
dtnsim.node[23].app.enable = true
dtnsim.node[23].app.bundlesNumber = "10,14,7,3,19,17,7,10,5,4,1,3"
dtnsim.node[23].app.start = "15,34,53,62,98,15,68,41,3,34,92,2"
dtnsim.node[23].app.destinationEid = "174,79,56,85,152,234,98,182,60,52,190,185"
dtnsim.node[23].app.size = "50,50,500,200,500,200,100,50,50,100,200,200"
# Node 24 random traffic
dtnsim.node[24].app.enable = true
dtnsim.node[24].app.bundlesNumber = "23,16,17,14,11,1,15,2,1"
dtnsim.node[24].app.start = "24,75,29,41,91,74,10,31,47"
dtnsim.node[24].app.destinationEid = "71,5,147,75,227,197,30,148,184"
dtnsim.node[24].app.size = "100,500,50,200,500,50,500,200,50"
# Node 25 random traffic
dtnsim.node[25].app.enable = true
dtnsim.node[25].app.bundlesNumber = "15,11,8,9,16,20,11,5,3,1,1"
dtnsim.node[25].app.start = "73,46,44,23,94,9,43,67,7,11,92"
dtnsim.node[25].app.destinationEid = "44,209,218,166,174,28,119,217,105,95,173"
dtnsim.node[25].app.size = "200,50,100,500,50,100,200,500,50,50,500"
# Node 26 random traffic
dtnsim.node[26].app.enable = true
dtnsim.node[26].app.bundlesNumber = "24,6,8,4,6,16,17,3,1,15"
dtnsim.node[26].app.start = "80,13,50,13,35,28,2,20,41,64"
dtnsim.node[26].app.destinationEid = "105,184,190,93,5,153,217,185,60,160"
dtnsim.node[26].app.size = "200,200,50,500,50,500,100,50,200,50"
# Node 27 random traffic
dtnsim.node[27].app.enable = true
dtnsim.node[27].app.bundlesNumber = "8,11,1,8,4,8,12,22,25,1"
dtnsim.node[27].app.start = "93,98,66,72,49,87,77,45,71,13"
dtnsim.node[27].app.destinationEid = "235,98,13,89,161,237,223,86,142,183"
dtnsim.node[27].app.size = "100,50,100,200,50,100,200,200,100,100"
# Node 28 random traffic
dtnsim.node[28].app.enable = true
dtnsim.node[28].app.bundlesNumber = "11,6,5,20,1,16,8,25,2,1,5"
dtnsim.node[28].app.start = "39,9,25,2,91,4,59,67,25,55,10"
dtnsim.node[28].app.destinationEid = "204,235,159,174,49,184,129,114,44,218,218"
dtnsim.node[28].app.size = "200,50,500,100,200,50,50,500,500,50,50"
# Node 29 random traffic
dtnsim.node[29].app.enable = true
dtnsim.node[29].app.bundlesNumber = "3,2,7,5,12,5,22,18,16,4,1,2,3"
dtnsim.node[29].app.start = "59,9,66,31,76,26,5,17,77,41,44,69,88"
dtnsim.node[29].app.destinationEid = "143,40,99,203,50,202,85,185,163,61,212,207,121"
dtnsim.node[29].app.size = "200,500,100,50,100,100,500,100,50,100,500,200,200"
# Node 30 random traffic
dtnsim.node[30].app.enable = true
dtnsim.node[30].app.bundlesNumber = "2,15,9,17,2,11,20,19,3,1,1"
dtnsim.node[30].app.start = "84,94,67,95,55,74,25,43,28,87,78"
dtnsim.node[30].app.destinationEid = "6,40,81,104,199,41,235,218,143,192,177"
dtnsim.node[30].app.size = "200,500,500,50,200,500,50,100,200,100,500"
# Node 31 random traffic
dtnsim.node[31].app.enable = true
dtnsim.node[31].app.bundlesNumber = "22,20,22,7,17,1,9,2"
dtnsim.node[31].app.start = "40,50,1,66,23,93,74,8"
dtnsim.node[31].app.destinationEid = "179,8,135,149,36,225,171,91"
dtnsim.node[31].app.size = "200,50,100,100,500,50,100,50"
# Node 32 random traffic
dtnsim.node[32].app.enable = true
dtnsim.node[32].app.bundlesNumber = "22,6,16,24,3,22,6,1"
dtnsim.node[32].app.start = "97,33,42,8,71,91,75,53"
dtnsim.node[32].app.destinationEid = "189,222,180,139,115,66,126,124"
dtnsim.node[32].app.size = "50,100,100,50,50,200,200,200"
# Node 33 random traffic
dtnsim.node[33].app.enable = true
dtnsim.node[33].app.bundlesNumber = "4,12,23,7,21,7,23,2,1"
dtnsim.node[33].app.start = "69,24,82,98,54,70,53,68,89"
dtnsim.node[33].app.destinationEid = "137,96,193,137,10,103,196,144,90"
dtnsim.node[33].app.size = "500,500,50,500,500,500,500,500,100"
# Node 34 random traffic
dtnsim.node[34].app.enable = true
dtnsim.node[34].app.bundlesNumber = "16,13,15,20,1,13,21,1"
dtnsim.node[34].app.start = "100,93,16,61,92,5,8,68"
dtnsim.node[34].app.destinationEid = "207,4,30,54,91,176,236,92"
dtnsim.node[34].app.size = "500,500,50,200,500,200,50,500"
# Node 35 random traffic
dtnsim.node[35].app.enable = true
dtnsim.node[35].app.bundlesNumber = "16,12,11,13,16,17,1,7,1,2,4"
dtnsim.node[35].app.start = "49,80,91,95,57,87,55,29,7,8,79"
dtnsim.node[35].app.destinationEid = "57,120,37,204,126,19,141,9,180,150,202"
dtnsim.node[35].app.size = "500,200,50,500,100,500,50,100,500,200,50"
# Node 36 random traffic
dtnsim.node[36].app.enable = true
dtnsim.node[36].app.bundlesNumber = "2,25,10,23,25,14,1"
dtnsim.node[36].app.start = "24,65,31,56,77,3,20"
dtnsim.node[36].app.destinationEid = "211,179,85,163,147,139,76"
dtnsim.node[36].app.size = "100,200,100,50,100,100,50"
# Node 37 random traffic
dtnsim.node[37].app.enable = true
dtnsim.node[37].app.bundlesNumber = "12,5,12,16,6,3,19,22,3,1,1"
dtnsim.node[37].app.start = "28,73,23,28,28,11,23,23,32,79,91"
dtnsim.node[37].app.destinationEid = "175,145,187,166,143,150,184,217,102,49,145"
dtnsim.node[37].app.size = "200,50,50,500,100,50,100,500,200,200,100"
# Node 38 random traffic
dtnsim.node[38].app.enable = true
dtnsim.node[38].app.bundlesNumber = "17,23,13,25,21,1"
dtnsim.node[38].app.start = "85,10,79,66,69,2"
dtnsim.node[38].app.destinationEid = "166,42,170,176,132,117"
dtnsim.node[38].app.size = "50,500,100,100,50,200"
# Node 39 random traffic
dtnsim.node[39].app.enable = true
dtnsim.node[39].app.bundlesNumber = "20,19,14,3,1,15,25,2,1"
dtnsim.node[39].app.start = "95,38,22,68,77,28,81,92,50"
dtnsim.node[39].app.destinationEid = "213,125,54,188,42,83,203,193,28"
dtnsim.node[39].app.size = "100,500,50,100,50,100,50,50,100"
# Node 40 random traffic
dtnsim.node[40].app.enable = true
dtnsim.node[40].app.bundlesNumber = "24,17,25,11,16,7"
dtnsim.node[40].app.start = "35,89,65,79,7,73"
dtnsim.node[40].app.destinationEid = "97,234,37,34,9,229"
dtnsim.node[40].app.size = "500,50,50,100,100,50"
# Node 41 random traffic
dtnsim.node[41].app.enable = true
dtnsim.node[41].app.bundlesNumber = "7,23,8,13,8,2,5,10,16,6,1,1"
dtnsim.node[41].app.start = "30,6,76,82,29,73,47,42,43,87,20,77"
dtnsim.node[41].app.destinationEid = "105,188,81,228,39,153,229,109,18,134,123,147"
dtnsim.node[41].app.size = "200,500,200,100,500,50,50,100,100,500,50,200"
# Node 42 random traffic
dtnsim.node[42].app.enable = true
dtnsim.node[42].app.bundlesNumber = "1,21,23,19,2,2,11,20,1"
dtnsim.node[42].app.start = "43,65,6,41,28,91,47,52,36"
dtnsim.node[42].app.destinationEid = "117,14,152,147,235,152,50,117,55"
dtnsim.node[42].app.size = "500,50,500,500,100,500,50,200,200"
# Node 43 random traffic
dtnsim.node[43].app.enable = true
dtnsim.node[43].app.bundlesNumber = "16,4,14,4,19,25,8,8,1,1"
dtnsim.node[43].app.start = "49,48,31,92,100,31,85,65,74,2"
dtnsim.node[43].app.destinationEid = "156,81,36,118,185,79,228,128,20,9"
dtnsim.node[43].app.size = "50,200,100,500,500,100,200,200,50,50"
# Node 44 random traffic
dtnsim.node[44].app.enable = true
dtnsim.node[44].app.bundlesNumber = "7,5,17,20,7,23,19,2"
dtnsim.node[44].app.start = "99,47,7,20,84,9,74,78"
dtnsim.node[44].app.destinationEid = "110,119,34,82,168,197,155,103"
dtnsim.node[44].app.size = "100,100,50,50,50,200,500,500"
# Node 45 random traffic
dtnsim.node[45].app.enable = true
dtnsim.node[45].app.bundlesNumber = "13,21,6,24,18,2,13,2,1"
dtnsim.node[45].app.start = "68,93,88,39,53,100,37,20,12"
dtnsim.node[45].app.destinationEid = "112,30,109,38,181,165,207,232,215"
dtnsim.node[45].app.size = "500,100,100,500,200,100,50,50,50"
# Node 46 random traffic
dtnsim.node[46].app.enable = true
dtnsim.node[46].app.bundlesNumber = "7,3,15,5,18,2,13,2,7,1,24,3"
dtnsim.node[46].app.start = "23,79,7,63,67,92,66,17,74,53,91,78"
dtnsim.node[46].app.destinationEid = "19,127,83,175,44,91,91,213,97,60,92,14"
dtnsim.node[46].app.size = "500,50,50,200,500,50,100,500,500,500,500,200"
# Node 47 random traffic
dtnsim.node[47].app.enable = true
dtnsim.node[47].app.bundlesNumber = "5,17,1,8,1,8,2,3,11,18,5,16,1,4"
dtnsim.node[47].app.start = "32,54,88,61,56,88,62,85,6,83,52,61,30,38"
dtnsim.node[47].app.destinationEid = "127,99,106,197,8,67,229,34,84,131,28,53,184,33"
dtnsim.node[47].app.size = "100,200,200,50,500,50,100,50,50,50,500,50,200,50"
# Node 48 random traffic
dtnsim.node[48].app.enable = true
dtnsim.node[48].app.bundlesNumber = "8,13,7,21,16,5,8,8,7,3,4"
dtnsim.node[48].app.start = "12,15,11,41,72,61,49,78,18,70,54"
dtnsim.node[48].app.destinationEid = "88,225,222,14,52,120,39,92,35,208,105"
dtnsim.node[48].app.size = "100,50,500,50,200,50,50,50,200,100,200"
# Node 49 random traffic
dtnsim.node[49].app.enable = true
dtnsim.node[49].app.bundlesNumber = "10,9,8,11,16,3,7,18,7,3,4,2,1,1"
dtnsim.node[49].app.start = "10,5,89,5,32,23,68,25,73,3,23,65,63,6"
dtnsim.node[49].app.destinationEid = "180,240,147,39,222,32,178,54,191,141,97,196,75,215"
dtnsim.node[49].app.size = "500,500,500,200,100,100,100,200,100,100,50,200,50,200"
# Node 50 random traffic
dtnsim.node[50].app.enable = true
dtnsim.node[50].app.bundlesNumber = "25,5,5,4,6,2,13,11,9,11,8,1"
dtnsim.node[50].app.start = "45,56,7,58,64,24,12,99,74,91,15,90"
dtnsim.node[50].app.destinationEid = "108,194,167,36,46,48,222,132,169,104,10,83"
dtnsim.node[50].app.size = "100,200,50,500,100,500,200,100,500,500,200,100"
# Node 51 random traffic
dtnsim.node[51].app.enable = true
dtnsim.node[51].app.bundlesNumber = "21,19,21,1,6,3,13,10,6"
dtnsim.node[51].app.start = "20,14,6,93,79,81,59,21,68"
dtnsim.node[51].app.destinationEid = "18,84,80,220,31,57,156,219,108"
dtnsim.node[51].app.size = "500,50,200,100,500,50,200,200,500"
# Node 52 random traffic
dtnsim.node[52].app.enable = true
dtnsim.node[52].app.bundlesNumber = "25,8,3,25,15,6,1,9,6,2"
dtnsim.node[52].app.start = "74,2,96,93,28,55,98,50,44,63"
dtnsim.node[52].app.destinationEid = "138,48,14,128,190,236,10,234,69,198"
dtnsim.node[52].app.size = "50,100,50,500,100,50,100,200,50,50"
# Node 53 random traffic
dtnsim.node[53].app.enable = true
dtnsim.node[53].app.bundlesNumber = "6,23,17,5,21,13,1,7,1,6"
dtnsim.node[53].app.start = "78,69,42,62,11,47,74,38,56,66"
dtnsim.node[53].app.destinationEid = "57,207,11,236,113,134,153,140,101,100"
dtnsim.node[53].app.size = "200,50,500,50,50,100,100,500,200,200"
# Node 54 random traffic
dtnsim.node[54].app.enable = true
dtnsim.node[54].app.bundlesNumber = "15,23,5,22,24,9,1,1"
dtnsim.node[54].app.start = "40,46,78,71,13,81,34,47"
dtnsim.node[54].app.destinationEid = "72,233,103,225,119,63,57,146"
dtnsim.node[54].app.size = "200,50,100,50,50,100,50,200"
# Node 55 random traffic
dtnsim.node[55].app.enable = true
dtnsim.node[55].app.bundlesNumber = "19,1,16,17,11,17,17,2"
dtnsim.node[55].app.start = "69,59,74,50,10,37,23,28"
dtnsim.node[55].app.destinationEid = "118,217,152,111,174,97,239,220"
dtnsim.node[55].app.size = "100,200,100,500,500,500,500,50"
# Node 56 random traffic
dtnsim.node[56].app.enable = true
dtnsim.node[56].app.bundlesNumber = "25,15,24,23,7,2,3,1"
dtnsim.node[56].app.start = "6,51,92,83,87,98,65,75"
dtnsim.node[56].app.destinationEid = "119,135,140,151,123,134,123,175"
dtnsim.node[56].app.size = "200,100,200,200,200,500,100,100"
# Node 57 random traffic
dtnsim.node[57].app.enable = true
dtnsim.node[57].app.bundlesNumber = "19,2,7,15,23,19,9,3,1,2"
dtnsim.node[57].app.start = "29,91,52,49,9,41,40,11,41,57"
dtnsim.node[57].app.destinationEid = "65,139,12,75,10,35,200,58,81,36"
dtnsim.node[57].app.size = "50,50,50,500,100,200,100,500,100,500"
# Node 58 random traffic
dtnsim.node[58].app.enable = true
dtnsim.node[58].app.bundlesNumber = "23,16,18,24,12,4,1,2"
dtnsim.node[58].app.start = "26,32,10,34,47,27,81,76"
dtnsim.node[58].app.destinationEid = "40,134,110,229,147,138,19,72"
dtnsim.node[58].app.size = "100,100,100,500,100,500,50,500"
# Node 59 random traffic
dtnsim.node[59].app.enable = true
dtnsim.node[59].app.bundlesNumber = "13,21,21,4,13,21,5,1,1"
dtnsim.node[59].app.start = "1,5,71,7,98,80,62,56,47"
dtnsim.node[59].app.destinationEid = "189,232,88,148,17,39,215,162,82"
dtnsim.node[59].app.size = "500,500,100,100,200,200,100,50,500"
# Node 60 random traffic
dtnsim.node[60].app.enable = true
dtnsim.node[60].app.bundlesNumber = "1,22,11,6,3,23,25,3,3,3"
dtnsim.node[60].app.start = "75,97,74,99,33,22,27,97,25,40"
dtnsim.node[60].app.destinationEid = "86,81,236,159,72,83,164,221,34,81"
dtnsim.node[60].app.size = "100,50,200,500,100,100,100,100,200,50"
# Node 61 random traffic
dtnsim.node[61].app.enable = true
dtnsim.node[61].app.bundlesNumber = "2,17,11,14,8,8,2,2,1,15,11,7,1,1"
dtnsim.node[61].app.start = "12,39,16,47,39,36,34,55,65,81,15,77,92,88"
dtnsim.node[61].app.destinationEid = "169,200,69,221,93,188,175,199,108,25,47,83,63,9"
dtnsim.node[61].app.size = "50,200,500,200,200,200,100,100,50,100,500,200,200,500"
# Node 62 random traffic
dtnsim.node[62].app.enable = true
dtnsim.node[62].app.bundlesNumber = "15,23,1,15,23,2,17,4"
dtnsim.node[62].app.start = "72,27,46,27,40,52,100,1"
dtnsim.node[62].app.destinationEid = "214,81,176,168,19,198,78,66"
dtnsim.node[62].app.size = "50,50,200,500,200,100,50,500"
# Node 63 random traffic
dtnsim.node[63].app.enable = true
dtnsim.node[63].app.bundlesNumber = "8,23,25,15,17,8,1,1,1,1"
dtnsim.node[63].app.start = "98,11,60,77,11,42,23,25,55,76"
dtnsim.node[63].app.destinationEid = "74,211,137,169,203,46,217,159,179,7"
dtnsim.node[63].app.size = "100,50,200,100,50,50,200,50,100,50"
# Node 64 random traffic
dtnsim.node[64].app.enable = true
dtnsim.node[64].app.bundlesNumber = "16,7,10,9,10,21,4,19,3,1"
dtnsim.node[64].app.start = "46,34,43,66,62,9,52,89,22,88"
dtnsim.node[64].app.destinationEid = "12,89,108,141,188,41,98,238,124,85"
dtnsim.node[64].app.size = "100,200,200,500,200,500,500,500,50,100"
# Node 65 random traffic
dtnsim.node[65].app.enable = true
dtnsim.node[65].app.bundlesNumber = "7,14,24,4,4,25,5,1,1,9,3,2,1"
dtnsim.node[65].app.start = "56,33,27,37,26,59,34,87,84,88,17,48,36"
dtnsim.node[65].app.destinationEid = "2,129,240,58,220,90,215,75,39,197,156,169,218"
dtnsim.node[65].app.size = "100,500,50,200,100,500,500,500,50,200,200,200,100"
# Node 66 random traffic
dtnsim.node[66].app.enable = true
dtnsim.node[66].app.bundlesNumber = "14,20,25,8,6,17,1,2,7"
dtnsim.node[66].app.start = "80,86,42,98,24,60,35,29,23"
dtnsim.node[66].app.destinationEid = "204,65,100,149,68,9,231,178,54"
dtnsim.node[66].app.size = "500,100,100,50,200,100,100,200,50"
# Node 67 random traffic
dtnsim.node[67].app.enable = true
dtnsim.node[67].app.bundlesNumber = "20,17,12,17,2,22,7,1,2"
dtnsim.node[67].app.start = "67,19,69,28,48,40,20,67,57"
dtnsim.node[67].app.destinationEid = "161,138,18,111,111,156,172,104,7"
dtnsim.node[67].app.size = "50,200,50,100,500,100,500,100,100"
# Node 68 random traffic
dtnsim.node[68].app.enable = true
dtnsim.node[68].app.bundlesNumber = "19,1,7,25,23,14,7,4"
dtnsim.node[68].app.start = "54,36,6,23,65,15,87,84"
dtnsim.node[68].app.destinationEid = "41,156,190,115,145,212,51,189"
dtnsim.node[68].app.size = "50,200,50,50,500,200,200,100"
# Node 69 random traffic
dtnsim.node[69].app.enable = true
dtnsim.node[69].app.bundlesNumber = "23,22,7,16,22,3,6,1"
dtnsim.node[69].app.start = "24,86,45,59,29,73,7,46"
dtnsim.node[69].app.destinationEid = "135,180,118,160,17,233,186,180"
dtnsim.node[69].app.size = "500,500,200,500,100,100,200,50"
# Node 70 random traffic
dtnsim.node[70].app.enable = true
dtnsim.node[70].app.bundlesNumber = "12,22,7,24,5,10,12,8"
dtnsim.node[70].app.start = "53,52,94,53,100,38,72,34"
dtnsim.node[70].app.destinationEid = "112,225,39,37,21,78,201,230"
dtnsim.node[70].app.size = "200,50,200,200,500,50,50,100"
# Node 71 random traffic
dtnsim.node[71].app.enable = true
dtnsim.node[71].app.bundlesNumber = "2,7,25,23,4,3,19,6,2,6,3"
dtnsim.node[71].app.start = "78,47,28,75,45,70,17,53,62,78,55"
dtnsim.node[71].app.destinationEid = "96,99,169,80,82,220,41,62,63,234,236"
dtnsim.node[71].app.size = "50,500,500,500,50,200,500,500,50,500,200"
# Node 72 random traffic
dtnsim.node[72].app.enable = true
dtnsim.node[72].app.bundlesNumber = "24,12,23,5,8,11,15,2"
dtnsim.node[72].app.start = "18,79,81,48,49,83,89,4"
dtnsim.node[72].app.destinationEid = "148,30,207,164,189,230,190,44"
dtnsim.node[72].app.size = "50,50,100,100,500,500,500,100"
# Node 73 random traffic
dtnsim.node[73].app.enable = true
dtnsim.node[73].app.bundlesNumber = "20,13,14,20,10,22,1"
dtnsim.node[73].app.start = "26,79,70,27,21,27,50"
dtnsim.node[73].app.destinationEid = "108,16,34,235,35,52,127"
dtnsim.node[73].app.size = "500,100,200,50,200,500,200"
# Node 74 random traffic
dtnsim.node[74].app.enable = true
dtnsim.node[74].app.bundlesNumber = "13,23,24,2,12,21,4,1"
dtnsim.node[74].app.start = "13,5,67,97,59,70,30,30"
dtnsim.node[74].app.destinationEid = "60,79,71,230,115,79,123,95"
dtnsim.node[74].app.size = "200,500,200,50,500,100,200,50"
# Node 75 random traffic
dtnsim.node[75].app.enable = true
dtnsim.node[75].app.bundlesNumber = "23,7,17,11,1,6,13,17,1,2,1,1"
dtnsim.node[75].app.start = "15,79,27,81,50,47,87,4,73,18,94,77"
dtnsim.node[75].app.destinationEid = "21,115,142,73,196,115,4,37,78,224,207,183"
dtnsim.node[75].app.size = "200,200,200,50,100,50,500,100,500,50,200,500"
# Node 76 random traffic
dtnsim.node[76].app.enable = true
dtnsim.node[76].app.bundlesNumber = "20,8,13,16,13,3,3,20,1,2,1"
dtnsim.node[76].app.start = "19,20,29,46,7,16,80,11,17,10,31"
dtnsim.node[76].app.destinationEid = "157,66,217,59,147,172,138,121,135,38,228"
dtnsim.node[76].app.size = "50,50,200,100,500,50,100,100,100,100,50"
# Node 77 random traffic
dtnsim.node[77].app.enable = true
dtnsim.node[77].app.bundlesNumber = "16,9,8,5,24,21,13,1,2,1"
dtnsim.node[77].app.start = "96,61,34,58,6,75,20,98,83,82"
dtnsim.node[77].app.destinationEid = "165,104,27,182,79,117,61,183,194,147"
dtnsim.node[77].app.size = "200,100,100,50,200,50,100,50,100,50"
# Node 78 random traffic
dtnsim.node[78].app.enable = true
dtnsim.node[78].app.bundlesNumber = "15,11,8,11,1,10,13,17,13,1"
dtnsim.node[78].app.start = "1,43,37,91,50,9,44,18,40,38"
dtnsim.node[78].app.destinationEid = "230,20,172,38,160,122,103,170,176,138"
dtnsim.node[78].app.size = "100,500,100,50,50,50,500,100,50,100"
# Node 79 random traffic
dtnsim.node[79].app.enable = true
dtnsim.node[79].app.bundlesNumber = "10,7,8,2,15,23,10,25"
dtnsim.node[79].app.start = "15,66,87,67,5,56,12,73"
dtnsim.node[79].app.destinationEid = "22,32,80,8,87,225,94,103"
dtnsim.node[79].app.size = "500,200,50,50,50,200,50,200"
# Node 80 random traffic
dtnsim.node[80].app.enable = true
dtnsim.node[80].app.bundlesNumber = "6,1,21,22,19,1,14,15,1"
dtnsim.node[80].app.start = "18,12,17,75,80,2,4,38,4"
dtnsim.node[80].app.destinationEid = "231,190,100,12,161,69,8,148,132"
dtnsim.node[80].app.size = "200,200,200,200,200,100,500,500,100"
# Node 81 random traffic
dtnsim.node[81].app.enable = true
dtnsim.node[81].app.bundlesNumber = "11,23,12,22,24,5,3"
dtnsim.node[81].app.start = "83,88,61,85,70,56,49"
dtnsim.node[81].app.destinationEid = "118,129,177,237,169,148,236"
dtnsim.node[81].app.size = "100,200,200,500,500,500,100"
# Node 82 random traffic
dtnsim.node[82].app.enable = true
dtnsim.node[82].app.bundlesNumber = "11,10,7,10,23,10,11,14,3,1"
dtnsim.node[82].app.start = "58,26,92,91,36,27,4,78,57,24"
dtnsim.node[82].app.destinationEid = "36,221,157,54,10,23,136,53,62,9"
dtnsim.node[82].app.size = "100,50,500,200,100,50,100,50,100,500"
# Node 83 random traffic
dtnsim.node[83].app.enable = true
dtnsim.node[83].app.bundlesNumber = "1,13,15,7,10,11,18,6,1,13,1,2,1,1"
dtnsim.node[83].app.start = "84,18,2,17,19,65,49,73,64,14,54,88,15,48"
dtnsim.node[83].app.destinationEid = "218,196,75,110,191,109,224,81,30,111,230,234,236,52"
dtnsim.node[83].app.size = "50,50,50,50,50,100,50,500,200,50,500,500,200,50"
# Node 84 random traffic
dtnsim.node[84].app.enable = true
dtnsim.node[84].app.bundlesNumber = "23,3,6,9,1,11,11,20,7,3,1,2,3"
dtnsim.node[84].app.start = "65,34,62,98,50,86,55,99,30,66,48,95,9"
dtnsim.node[84].app.destinationEid = "118,95,230,91,134,92,135,133,111,162,154,202,34"
dtnsim.node[84].app.size = "50,200,100,100,100,50,100,500,500,50,500,50,50"
# Node 85 random traffic
dtnsim.node[85].app.enable = true
dtnsim.node[85].app.bundlesNumber = "12,18,7,8,21,10,15,3,3,1,2"
dtnsim.node[85].app.start = "70,96,56,28,63,66,55,98,2,11,8"
dtnsim.node[85].app.destinationEid = "237,125,78,141,184,6,75,39,115,192,8"
dtnsim.node[85].app.size = "100,100,100,100,200,500,50,50,50,500,100"
# Node 86 random traffic
dtnsim.node[86].app.enable = true
dtnsim.node[86].app.bundlesNumber = "21,20,21,11,7,6,2,8,3,1"
dtnsim.node[86].app.start = "9,78,66,95,57,99,62,19,29,30"
dtnsim.node[86].app.destinationEid = "106,59,57,52,36,71,93,230,79,31"
dtnsim.node[86].app.size = "500,200,100,500,200,500,50,200,100,50"
# Node 87 random traffic
dtnsim.node[87].app.enable = true
dtnsim.node[87].app.bundlesNumber = "13,22,9,11,19,7,4,15"
dtnsim.node[87].app.start = "63,72,31,76,49,85,7,59"
dtnsim.node[87].app.destinationEid = "38,121,174,200,104,80,190,173"
dtnsim.node[87].app.size = "100,50,500,500,50,200,500,500"
# Node 88 random traffic
dtnsim.node[88].app.enable = true
dtnsim.node[88].app.bundlesNumber = "19,24,22,9,20,4,2"
dtnsim.node[88].app.start = "75,46,9,89,51,80,62"
dtnsim.node[88].app.destinationEid = "126,237,137,201,45,64,186"
dtnsim.node[88].app.size = "50,200,100,200,100,100,500"
# Node 89 random traffic
dtnsim.node[89].app.enable = true
dtnsim.node[89].app.bundlesNumber = "21,5,7,25,7,16,13,3,1,2"
dtnsim.node[89].app.start = "94,91,76,66,5,2,70,17,81,72"
dtnsim.node[89].app.destinationEid = "111,45,213,216,15,113,115,147,118,153"
dtnsim.node[89].app.size = "500,100,500,100,50,50,500,100,500,500"
# Node 90 random traffic
dtnsim.node[90].app.enable = true
dtnsim.node[90].app.bundlesNumber = "25,1,22,18,11,20,3"
dtnsim.node[90].app.start = "76,89,69,77,72,24,89"
dtnsim.node[90].app.destinationEid = "20,110,84,14,82,81,217"
dtnsim.node[90].app.size = "50,500,50,50,50,50,200"
# Node 91 random traffic
dtnsim.node[91].app.enable = true
dtnsim.node[91].app.bundlesNumber = "14,23,11,16,14,10,12"
dtnsim.node[91].app.start = "55,31,28,70,4,85,100"
dtnsim.node[91].app.destinationEid = "150,228,83,35,49,145,48"
dtnsim.node[91].app.size = "500,50,200,50,500,50,500"
# Node 92 random traffic
dtnsim.node[92].app.enable = true
dtnsim.node[92].app.bundlesNumber = "2,1,19,8,2,19,6,3,21,1,10,2,1,2,1,1,1"
dtnsim.node[92].app.start = "35,30,40,47,39,47,10,50,59,36,61,19,96,74,52,64,51"
dtnsim.node[92].app.destinationEid = "169,210,194,127,86,197,24,55,75,107,71,2,36,101,87,107,189"
dtnsim.node[92].app.size = "200,500,200,200,500,100,500,100,50,200,100,50,100,100,500,200,500"
# Node 93 random traffic
dtnsim.node[93].app.enable = true
dtnsim.node[93].app.bundlesNumber = "25,9,1,19,20,12,10,3,1"
dtnsim.node[93].app.start = "81,5,36,20,27,25,79,53,23"
dtnsim.node[93].app.destinationEid = "132,60,191,239,209,164,28,1,89"