[General]
network = src.dtnsim										
repeat = 1
allow-object-stealing-on-deletion = true

# Simulation end time
sim-time-limit = 84600s

# Nodes quantity (identifiers (EiDs) matches their index, EiD=0 is ignored)			
dtnsim.nodesNumber = 240
dtnsim.node[*].icon = "satellite"

# Nodes's failure rates
dtnsim.node[*].fault.enable = false
dtnsim.node[*].fault.meanTTF = 0s
dtnsim.node[*].fault.meanTTR = 0s

dtnsim.node[*].dtn.routing = "cgrModel350"
dtnsim.node[*].dtn.printRoutingDebug = true

# --- Random Traffic Configuration ---
# Node 1 random traffic
dtnsim.node[1].app.enable = true
dtnsim.node[1].app.bundlesNumber = "25,10,11,6,4,25,6,13"
dtnsim.node[1].app.start = "12,30,58,65,65,83,33,24"
dtnsim.node[1].app.destinationEid = "106,103,167,83,67,67,108,2"
dtnsim.node[1].app.size = "100,500,50,100,200,50,200,200"
# Node 2 random traffic
dtnsim.node[2].app.enable = true
dtnsim.node[2].app.bundlesNumber = "19,4,16,23,9,5,20,3,1"
dtnsim.node[2].app.start = "5,44,99,16,76,61,80,16,20"
dtnsim.node[2].app.destinationEid = "60,238,61,144,122,25,125,156,25"
dtnsim.node[2].app.size = "50,100,100,200,500,500,50,500,500"
# Node 3 random traffic
dtnsim.node[3].app.enable = true
dtnsim.node[3].app.bundlesNumber = "3,13,15,7,10,3,5,19,9,8,7,1"
dtnsim.node[3].app.start = "3,25,74,92,33,24,62,37,7,66,6,11"
dtnsim.node[3].app.destinationEid = "100,105,181,104,214,219,95,43,137,134,74,177"
dtnsim.node[3].app.size = "200,50,500,100,200,50,200,100,200,100,500,500"
# Node 4 random traffic
dtnsim.node[4].app.enable = true
dtnsim.node[4].app.bundlesNumber = "7,8,25,17,18,8,12,2,2,1"
dtnsim.node[4].app.start = "86,33,82,58,12,37,10,33,11,25"
dtnsim.node[4].app.destinationEid = "180,232,54,212,106,120,173,209,177,144"
dtnsim.node[4].app.size = "500,100,200,50,200,50,50,50,200,50"
# Node 5 random traffic
dtnsim.node[5].app.enable = true
dtnsim.node[5].app.bundlesNumber = "10,23,13,19,19,3,4,8,1"
dtnsim.node[5].app.start = "87,96,58,13,77,49,23,29,100"
dtnsim.node[5].app.destinationEid = "9,67,170,218,125,66,208,201,183"
dtnsim.node[5].app.size = "50,200,500,200,200,200,100,200,50"
# Node 6 random traffic
dtnsim.node[6].app.enable = true
dtnsim.node[6].app.bundlesNumber = "3,17,10,10,10,22,18,5,2,1,1,1"
dtnsim.node[6].app.start = "97,7,80,28,22,82,36,16,13,77,82,53"
dtnsim.node[6].app.destinationEid = "11,30,173,130,198,210,23,85,39,141,38,69"
dtnsim.node[6].app.size = "100,50,50,200,100,500,100,500,50,500,500,200"
# Node 7 random traffic
dtnsim.node[7].app.enable = true
dtnsim.node[7].app.bundlesNumber = "17,12,9,12,25,20,5"
dtnsim.node[7].app.start = "62,21,23,99,30,73,7"
dtnsim.node[7].app.destinationEid = "143,210,140,205,164,122,41"
dtnsim.node[7].app.size = "100,50,100,200,50,500,200"
# Node 8 random traffic
dtnsim.node[8].app.enable = true
dtnsim.node[8].app.bundlesNumber = "22,11,8,12,25,5,14,3"
dtnsim.node[8].app.start = "7,94,16,96,78,23,7,63"
dtnsim.node[8].app.destinationEid = "59,141,32,32,2,96,60,164"
dtnsim.node[8].app.size = "50,500,100,200,50,500,500,500"
# Node 9 random traffic
dtnsim.node[9].app.enable = true
dtnsim.node[9].app.bundlesNumber = "11,1,21,5,13,25,10,12,2"
dtnsim.node[9].app.start = "39,93,24,31,63,76,91,2,67"
dtnsim.node[9].app.destinationEid = "45,196,116,233,25,46,72,45,24"
dtnsim.node[9].app.size = "50,100,500,200,500,500,200,200,50"
# Node 10 random traffic
dtnsim.node[10].app.enable = true
dtnsim.node[10].app.bundlesNumber = "9,20,7,13,11,7,24,8,1"
dtnsim.node[10].app.start = "59,66,8,21,46,10,24,78,23"
dtnsim.node[10].app.destinationEid = "135,214,139,216,206,129,92,24,146"
dtnsim.node[10].app.size = "100,200,200,200,100,500,100,100,200"
# Node 11 random traffic
dtnsim.node[11].app.enable = true
dtnsim.node[11].app.bundlesNumber = "19,16,16,24,21,1,2,1"
dtnsim.node[11].app.start = "50,17,74,24,7,76,30,1"
dtnsim.node[11].app.destinationEid = "77,8,110,201,19,160,78,34"
dtnsim.node[11].app.size = "100,50,100,50,50,100,50,200"
# Node 12 random traffic
dtnsim.node[12].app.enable = true
dtnsim.node[12].app.bundlesNumber = "15,8,23,13,23,5,2,9,1,1"
dtnsim.node[12].app.start = "52,5,57,9,40,82,94,23,80,28"
dtnsim.node[12].app.destinationEid = "70,67,61,160,90,199,41,188,229,221"
dtnsim.node[12].app.size = "50,100,200,50,200,200,100,50,200,500"
# Node 13 random traffic
dtnsim.node[13].app.enable = true
dtnsim.node[13].app.bundlesNumber = "23,19,25,21,8,2,1,1"
dtnsim.node[13].app.start = "89,36,93,81,70,41,20,82"
dtnsim.node[13].app.destinationEid = "120,131,205,141,5,86,55,207"
dtnsim.node[13].app.size = "200,200,100,200,500,100,500,500"
# Node 14 random traffic
dtnsim.node[14].app.enable = true
dtnsim.node[14].app.bundlesNumber = "11,11,3,17,19,10,6,2,20,1"
dtnsim.node[14].app.start = "11,65,47,35,91,36,38,39,8,6"
dtnsim.node[14].app.destinationEid = "150,79,6,136,31,171,65,1,225,98"
dtnsim.node[14].app.size = "50,200,100,50,500,500,200,500,500,50"
# Node 15 random traffic
dtnsim.node[15].app.enable = true
dtnsim.node[15].app.bundlesNumber = "24,14,19,7,18,14,1,2,1"
dtnsim.node[15].app.start = "74,65,86,53,31,35,2,56,36"
dtnsim.node[15].app.destinationEid = "219,238,56,19,130,110,29,14,54"
dtnsim.node[15].app.size = "500,100,100,100,500,500,500,500,500"
# Node 16 random traffic
dtnsim.node[16].app.enable = true
dtnsim.node[16].app.bundlesNumber = "2,2,14,12,20,11,24,3,1,7,2,2"
dtnsim.node[16].app.start = "43,19,78,17,39,89,13,38,27,92,17,53"
dtnsim.node[16].app.destinationEid = "61,123,66,49,71,125,15,216,78,135,57,45"
dtnsim.node[16].app.size = "100,50,50,50,100,200,50,200,500,100,50,50"
# Node 17 random traffic
dtnsim.node[17].app.enable = true
dtnsim.node[17].app.bundlesNumber = "16,19,5,21,21,6,7,3,1,1"
dtnsim.node[17].app.start = "42,12,85,83,55,51,98,31,62,74"
dtnsim.node[17].app.destinationEid = "165,96,100,136,230,153,88,158,135,73"
dtnsim.node[17].app.size = "200,500,200,50,500,200,500,50,50,500"
# Node 18 random traffic
dtnsim.node[18].app.enable = true
dtnsim.node[18].app.bundlesNumber = "21,5,12,22,18,22"
dtnsim.node[18].app.start = "32,38,38,33,6,1"
dtnsim.node[18].app.destinationEid = "150,40,20,3,216,142"
dtnsim.node[18].app.size = "200,500,200,500,500,500"
# Node 19 random traffic
dtnsim.node[19].app.enable = true
dtnsim.node[19].app.bundlesNumber = "2,15,18,13,6,2,14,16,1,6,5,1,1"
dtnsim.node[19].app.start = "37,91,45,63,50,36,93,24,48,2,76,14,74"
dtnsim.node[19].app.destinationEid = "218,46,52,22,189,212,109,202,195,68,161,187,182"
dtnsim.node[19].app.size = "500,500,100,500,500,200,200,100,100,200,500,200,100"
# Node 20 random traffic
dtnsim.node[20].app.enable = true
dtnsim.node[20].app.bundlesNumber = "5,20,7,5,23,8,16,6,9,1"
dtnsim.node[20].app.start = "11,50,29,84,92,97,100,11,71,67"
dtnsim.node[20].app.destinationEid = "61,133,216,172,76,50,93,13,7,1"
dtnsim.node[20].app.size = "100,500,100,100,100,200,50,500,50,500"
# Node 21 random traffic
dtnsim.node[21].app.enable = true
dtnsim.node[21].app.bundlesNumber = "23,17,22,15,9,1,12,1"
dtnsim.node[21].app.start = "44,86,61,47,70,81,43,40"
dtnsim.node[21].app.destinationEid = "194,29,167,82,56,8,131,115"
dtnsim.node[21].app.size = "200,200,50,500,500,100,50,500"
# Node 22 random traffic
dtnsim.node[22].app.enable = true
dtnsim.node[22].app.bundlesNumber = "6,15,6,12,5,2,17,2,6,25,1,1,1,1"
dtnsim.node[22].app.start = "56,89,9,94,56,45,39,77,47,68,82,55,31,21"
dtnsim.node[22].app.destinationEid = "144,48,191,198,133,60,136,226,40,145,43,138,191,194"
dtnsim.node[22].app.size = "100,500,500,100,50,50,100,100,200,500,100,200,200,500"
# Node 23 random traffic
dtnsim.node[23].app.enable = true
dtnsim.node[23].app.bundlesNumber = "21,12,17,6,7,10,9,8,10"
dtnsim.node[23].app.start = "29,14,9,47,54,11,87,49,42"
dtnsim.node[23].app.destinationEid = "63,94,96,77,206,230,118,220,165"
dtnsim.node[23].app.size = "50,50,200,100,50,200,200,200,200"
# Node 24 random traffic
dtnsim.node[24].app.enable = true
dtnsim.node[24].app.bundlesNumber = "18,9,17,21,5,4,2,11,9,1,2,1"
dtnsim.node[24].app.start = "92,100,1,90,41,4,83,47,90,6,62,55"
dtnsim.node[24].app.destinationEid = "167,86,232,82,12,225,194,145,81,112,67,194"
dtnsim.node[24].app.size = "100,100,500,200,50,500,50,500,500,500,100,50"
# Node 25 random traffic
dtnsim.node[25].app.enable = true
dtnsim.node[25].app.bundlesNumber = "22,24,15,2,19,16,1,1"
dtnsim.node[25].app.start = "45,46,47,70,2,56,26,66"
dtnsim.node[25].app.destinationEid = "64,239,163,56,119,57,215,89"
dtnsim.node[25].app.size = "500,50,500,100,500,200,50,500"
# Node 26 random traffic
dtnsim.node[26].app.enable = true
dtnsim.node[26].app.bundlesNumber = "17,9,22,23,9,11,2,6,1"
dtnsim.node[26].app.start = "81,22,29,5,38,19,46,49,99"
dtnsim.node[26].app.destinationEid = "79,135,99,177,75,149,184,74,184"
dtnsim.node[26].app.size = "50,500,50,200,100,200,50,200,100"
# Node 27 random traffic
dtnsim.node[27].app.enable = true
dtnsim.node[27].app.bundlesNumber = "16,16,10,12,24,10,8,4"
dtnsim.node[27].app.start = "55,99,78,88,47,30,75,13"
dtnsim.node[27].app.destinationEid = "193,35,123,165,178,84,171,179"
dtnsim.node[27].app.size = "500,50,200,200,500,500,100,100"
# Node 28 random traffic
dtnsim.node[28].app.enable = true
dtnsim.node[28].app.bundlesNumber = "10,16,12,20,23,15,2,1,1"
dtnsim.node[28].app.start = "90,17,36,4,17,41,27,16,56"
dtnsim.node[28].app.destinationEid = "91,74,149,160,48,209,159,135,2"
dtnsim.node[28].app.size = "500,500,200,50,50,100,200,100,500"
# Node 29 random traffic
dtnsim.node[29].app.enable = true
dtnsim.node[29].app.bundlesNumber = "9,2,23,11,21,25,8,1"
dtnsim.node[29].app.start = "88,51,97,59,80,60,61,3"
dtnsim.node[29].app.destinationEid = "76,70,100,140,230,177,209,182"
dtnsim.node[29].app.size = "200,100,100,50,500,100,50,50"
# Node 30 random traffic
dtnsim.node[30].app.enable = true
dtnsim.node[30].app.bundlesNumber = "10,22,1,17,2,3,25,17,3"
dtnsim.node[30].app.start = "69,98,56,2,97,96,69,80,55"
dtnsim.node[30].app.destinationEid = "94,203,196,137,79,225,104,74,34"
dtnsim.node[30].app.size = "500,50,500,500,50,50,50,100,500"
# Node 31 random traffic
dtnsim.node[31].app.enable = true
dtnsim.node[31].app.bundlesNumber = "19,10,14,15,18,17,1,6"
dtnsim.node[31].app.start = "53,75,51,64,53,42,98,83"
dtnsim.node[31].app.destinationEid = "97,81,59,4,82,41,194,145"
dtnsim.node[31].app.size = "100,200,50,100,200,500,50,200"
# Node 32 random traffic
dtnsim.node[32].app.enable = true
dtnsim.node[32].app.bundlesNumber = "7,2,23,6,14,1,16,5,5,19,1,1"
dtnsim.node[32].app.start = "25,70,96,46,36,10,62,17,8,94,59,12"
dtnsim.node[32].app.destinationEid = "226,178,99,78,91,174,240,45,113,148,2,120"
dtnsim.node[32].app.size = "50,200,500,200,100,100,50,200,50,50,50,200"
# Node 33 random traffic
dtnsim.node[33].app.enable = true
dtnsim.node[33].app.bundlesNumber = "21,15,21,11,25,5,1,1"
dtnsim.node[33].app.start = "49,13,11,83,34,100,91,41"
dtnsim.node[33].app.destinationEid = "165,144,172,60,43,129,13,89"
dtnsim.node[33].app.size = "200,100,50,200,500,50,200,100"
# Node 34 random traffic
dtnsim.node[34].app.enable = true
dtnsim.node[34].app.bundlesNumber = "3,20,12,22,16,17,4,3,2,1"
dtnsim.node[34].app.start = "88,27,26,70,52,85,66,12,73,100"
dtnsim.node[34].app.destinationEid = "78,25,20,69,17,156,21,166,43,192"
dtnsim.node[34].app.size = "100,100,200,500,200,50,50,100,200,200"
# Node 35 random traffic
dtnsim.node[35].app.enable = true
dtnsim.node[35].app.bundlesNumber = "7,2,21,22,21,10,3,6,3,1,1,1,2"
dtnsim.node[35].app.start = "76,2,37,81,20,49,65,8,82,73,68,4,71"
dtnsim.node[35].app.destinationEid = "226,167,85,22,15,206,231,40,61,165,78,229,27"
dtnsim.node[35].app.size = "50,200,200,100,50,500,100,50,200,500,100,100,200"
# Node 36 random traffic
dtnsim.node[36].app.enable = true
dtnsim.node[36].app.bundlesNumber = "13,10,25,24,10,15,2,1"
dtnsim.node[36].app.start = "7,37,36,28,82,98,88,71"
dtnsim.node[36].app.destinationEid = "45,237,79,191,217,217,155,178"
dtnsim.node[36].app.size = "100,50,100,100,500,200,500,200"
# Node 37 random traffic
dtnsim.node[37].app.enable = true
dtnsim.node[37].app.bundlesNumber = "16,24,9,6,2,14,15,11,2,1"
dtnsim.node[37].app.start = "60,70,17,51,48,50,34,8,67,85"
dtnsim.node[37].app.destinationEid = "205,92,168,63,134,178,194,210,83,118"
dtnsim.node[37].app.size = "50,500,500,50,50,200,100,50,50,500"
# Node 38 random traffic
dtnsim.node[38].app.enable = true
dtnsim.node[38].app.bundlesNumber = "14,19,10,16,12,23,6"
dtnsim.node[38].app.start = "42,11,69,88,14,85,69"
dtnsim.node[38].app.destinationEid = "72,196,187,9,219,108,10"
dtnsim.node[38].app.size = "50,50,50,200,100,100,200"
# Node 39 random traffic
dtnsim.node[39].app.enable = true
dtnsim.node[39].app.bundlesNumber = "3,1,3,10,13,17,12,15,19,5,1,1"
dtnsim.node[39].app.start = "39,15,42,97,43,98,30,57,7,44,44,33"
dtnsim.node[39].app.destinationEid = "76,6,58,26,27,36,14,66,163,59,218,98"
dtnsim.node[39].app.size = "50,100,200,50,500,100,50,50,100,50,500,50"
# Node 40 random traffic
dtnsim.node[40].app.enable = true
dtnsim.node[40].app.bundlesNumber = "23,1,12,7,7,3,1,11,15,1,17,1,1"
dtnsim.node[40].app.start = "98,90,73,85,23,53,12,42,31,31,65,82,28"
dtnsim.node[40].app.destinationEid = "197,167,183,230,150,193,123,28,217,10,161,176,149"
dtnsim.node[40].app.size = "500,50,50,100,500,100,200,500,50,100,200,100,200"
# Node 41 random traffic
dtnsim.node[41].app.enable = true
dtnsim.node[41].app.bundlesNumber = "20,18,16,18,10,7,2,7,1,1"
dtnsim.node[41].app.start = "62,54,37,28,14,29,10,95,6,43"
dtnsim.node[41].app.destinationEid = "196,88,35,143,60,197,86,176,61,22"
dtnsim.node[41].app.size = "100,200,100,100,100,50,200,500,50,100"
# Node 42 random traffic
dtnsim.node[42].app.enable = true
dtnsim.node[42].app.bundlesNumber = "13,14,5,18,22,21,4,2,1"
dtnsim.node[42].app.start = "64,25,10,29,56,46,32,71,46"
dtnsim.node[42].app.destinationEid = "84,25,192,30,169,227,217,101,228"
dtnsim.node[42].app.size = "100,500,200,50,200,100,200,100,100"
# Node 43 random traffic
dtnsim.node[43].app.enable = true
dtnsim.node[43].app.bundlesNumber = "17,22,24,17,1,13,3,2,1"
dtnsim.node[43].app.start = "17,17,42,14,77,19,2,10,17"
dtnsim.node[43].app.destinationEid = "136,79,103,79,181,166,158,191,147"
dtnsim.node[43].app.size = "500,500,500,500,500,50,50,50,500"
# Node 44 random traffic
dtnsim.node[44].app.enable = true
dtnsim.node[44].app.bundlesNumber = "19,1,22,13,19,13,1,12"
dtnsim.node[44].app.start = "50,30,94,75,87,31,82,87"
dtnsim.node[44].app.destinationEid = "131,9,95,12,137,198,65,96"
dtnsim.node[44].app.size = "100,500,500,500,500,500,100,50"
# Node 45 random traffic
dtnsim.node[45].app.enable = true
dtnsim.node[45].app.bundlesNumber = "11,5,13,2,25,19,5,4,1,6,8,1"
dtnsim.node[45].app.start = "14,43,25,85,65,83,10,88,66,51,96,51"
dtnsim.node[45].app.destinationEid = "12,193,47,223,58,86,116,92,81,182,127,126"
dtnsim.node[45].app.size = "100,50,200,200,100,50,50,100,100,500,500,200"
# Node 46 random traffic
dtnsim.node[46].app.enable = true
dtnsim.node[46].app.bundlesNumber = "17,10,23,9,1,25,9,4,1,1"
dtnsim.node[46].app.start = "73,93,26,24,66,43,66,90,89,86"
dtnsim.node[46].app.destinationEid = "45,152,114,122,176,151,177,141,71,49"
dtnsim.node[46].app.size = "500,100,500,500,100,200,50,200,100,200"
# Node 47 random traffic
dtnsim.node[47].app.enable = true
dtnsim.node[47].app.bundlesNumber = "5,4,4,9,7,10,24,4,19,3,4,2,1,3,1"
dtnsim.node[47].app.start = "41,27,72,69,2,69,83,26,13,98,57,45,1,64,79"
dtnsim.node[47].app.destinationEid = "231,169,214,7,197,202,198,100,184,101,209,207,42,220,201"
dtnsim.node[47].app.size = "200,50,50,100,200,200,200,50,50,500,100,200,500,200,200"
# Node 48 random traffic
dtnsim.node[48].app.enable = true
dtnsim.node[48].app.bundlesNumber = "6,7,14,17,2,19,17,1,7,5,3,1,1"
dtnsim.node[48].app.start = "48,63,88,27,16,67,77,45,18,1,79,16,76"
dtnsim.node[48].app.destinationEid = "238,204,122,134,160,37,113,221,75,42,231,149,67"
dtnsim.node[48].app.size = "100,500,100,200,50,200,100,500,200,200,200,100,200"
# Node 49 random traffic
dtnsim.node[49].app.enable = true
dtnsim.node[49].app.bundlesNumber = "22,8,4,24,6,18,10,3,4,1"
dtnsim.node[49].app.start = "32,8,49,51,3,64,91,13,46,78"
dtnsim.node[49].app.destinationEid = "62,74,192,131,199,79,189,94,221,210"
dtnsim.node[49].app.size = "100,50,50,200,50,100,50,50,100,100"
# Node 50 random traffic
dtnsim.node[50].app.enable = true
dtnsim.node[50].app.bundlesNumber = "2,3,2,11,25,23,14,20"
dtnsim.node[50].app.start = "13,39,20,33,61,42,43,87"
dtnsim.node[50].app.destinationEid = "174,121,71,131,34,40,123,138"
dtnsim.node[50].app.size = "100,50,200,200,500,200,50,200"
# Node 51 random traffic
dtnsim.node[51].app.enable = true
dtnsim.node[51].app.bundlesNumber = "17,2,19,21,15,11,1,5,2,6,1"
dtnsim.node[51].app.start = "55,30,21,8,69,70,32,64,38,63,18"
dtnsim.node[51].app.destinationEid = "60,187,163,146,19,106,79,54,58,89,104"
dtnsim.node[51].app.size = "100,500,500,100,50,50,200,500,50,500,100"
# Node 52 random traffic
dtnsim.node[52].app.enable = true
dtnsim.node[52].app.bundlesNumber = "13,4,11,11,15,6,4,11,14,8,2,1"
dtnsim.node[52].app.start = "36,65,61,64,16,82,47,100,10,12,13,8"
dtnsim.node[52].app.destinationEid = "7,107,103,56,16,97,8,58,131,158,195,197"
dtnsim.node[52].app.size = "500,500,100,100,50,100,50,100,200,50,100,500"
# Node 53 random traffic
dtnsim.node[53].app.enable = true
dtnsim.node[53].app.bundlesNumber = "18,20,23,25,2,5,6,1"
dtnsim.node[53].app.start = "83,32,63,93,3,33,35,22"
dtnsim.node[53].app.destinationEid = "240,235,156,83,96,141,207,185"
dtnsim.node[53].app.size = "500,500,100,50,500,100,200,200"
# Node 54 random traffic
dtnsim.node[54].app.enable = true
dtnsim.node[54].app.bundlesNumber = "17,7,22,8,18,8,18,1,1"
dtnsim.node[54].app.start = "1,75,3,74,35,43,74,35,70"
dtnsim.node[54].app.destinationEid = "74,152,176,196,32,41,89,184,227"
dtnsim.node[54].app.size = "50,500,50,50,200,200,500,500,500"
# Node 55 random traffic
dtnsim.node[55].app.enable = true
dtnsim.node[55].app.bundlesNumber = "14,9,18,8,23,9,14,4,1"
dtnsim.node[55].app.start = "71,12,10,42,66,11,25,92,96"
dtnsim.node[55].app.destinationEid = "171,103,85,181,106,80,166,121,215"
dtnsim.node[55].app.size = "200,100,200,500,200,200,50,200,500"
# Node 56 random traffic
dtnsim.node[56].app.enable = true
dtnsim.node[56].app.bundlesNumber = "23,5,14,1,20,19,13,4,1"
dtnsim.node[56].app.start = "77,32,95,26,46,15,25,57,34"
dtnsim.node[56].app.destinationEid = "18,62,1,226,165,6,159,55,136"
dtnsim.node[56].app.size = "50,50,100,50,50,50,500,100,500"
# Node 57 random traffic
dtnsim.node[57].app.enable = true
dtnsim.node[57].app.bundlesNumber = "3,19,15,16,12,25,7,3"
dtnsim.node[57].app.start = "64,63,66,36,99,59,85,88"
dtnsim.node[57].app.destinationEid = "60,104,63,134,77,128,9,167"
dtnsim.node[57].app.size = "100,200,500,50,50,50,200,500"
# Node 58 random traffic
dtnsim.node[58].app.enable = true
dtnsim.node[58].app.bundlesNumber = "21,2,4,6,16,7,14,12,11,7"
dtnsim.node[58].app.start = "68,28,1,67,66,53,31,16,92,79"
dtnsim.node[58].app.destinationEid = "108,212,153,56,39,72,166,22,14,202"
dtnsim.node[58].app.size = "50,100,100,200,500,200,500,50,100,500"
# Node 59 random traffic
dtnsim.node[59].app.enable = true
dtnsim.node[59].app.bundlesNumber = "7,16,5,6,10,24,2,5,17,4,1,2,1"
dtnsim.node[59].app.start = "87,58,6,24,17,96,13,15,91,22,34,57,14"
dtnsim.node[59].app.destinationEid = "29,112,105,197,228,212,64,167,221,151,23,111,67"
dtnsim.node[59].app.size = "50,100,100,500,500,50,50,500,200,200,500,500,500"
# Node 60 random traffic
dtnsim.node[60].app.enable = true
dtnsim.node[60].app.bundlesNumber = "20,4,20,3,16,10,15,6,5,1"
dtnsim.node[60].app.start = "23,62,90,27,8,94,98,37,99,49"
dtnsim.node[60].app.destinationEid = "45,237,43,119,192,179,83,105,14,95"
dtnsim.node[60].app.size = "200,500,100,200,500,500,200,200,100,200"
# Node 61 random traffic
dtnsim.node[61].app.enable = true
dtnsim.node[61].app.bundlesNumber = "16,1,13,3,8,23,2,8,20,5,1"
dtnsim.node[61].app.start = "70,60,18,38,47,68,16,30,76,15,87"
dtnsim.node[61].app.destinationEid = "18,225,185,122,102,227,104,35,73,18,18"
dtnsim.node[61].app.size = "100,50,100,200,50,100,50,200,500,50,200"
# Node 62 random traffic
dtnsim.node[62].app.enable = true
dtnsim.node[62].app.bundlesNumber = "25,6,21,15,18,11,3,1"
dtnsim.node[62].app.start = "79,85,97,44,87,30,75,71"
dtnsim.node[62].app.destinationEid = "26,166,190,120,182,205,160,45"
dtnsim.node[62].app.size = "200,50,200,200,100,100,50,100"
# Node 63 random traffic
dtnsim.node[63].app.enable = true
dtnsim.node[63].app.bundlesNumber = "7,11,11,11,22,17,4,8,9"
dtnsim.node[63].app.start = "92,60,64,55,56,55,52,95,46"
dtnsim.node[63].app.destinationEid = "11,186,116,181,23,100,128,109,59"
dtnsim.node[63].app.size = "200,500,200,500,100,200,200,100,200"
# Node 64 random traffic
dtnsim.node[64].app.enable = true
dtnsim.node[64].app.bundlesNumber = "6,21,8,10,10,8,23,11,3"
dtnsim.node[64].app.start = "75,84,18,52,39,38,59,38,49"
dtnsim.node[64].app.destinationEid = "25,204,12,92,8,119,41,211,151"
dtnsim.node[64].app.size = "500,50,200,200,100,100,100,50,200"
# Node 65 random traffic
dtnsim.node[65].app.enable = true
dtnsim.node[65].app.bundlesNumber = "23,16,9,18,21,11,1,1"
dtnsim.node[65].app.start = "58,60,27,25,83,15,63,32"
dtnsim.node[65].app.destinationEid = "178,118,208,109,19,209,226,50"
dtnsim.node[65].app.size = "200,50,100,200,50,500,500,200"
# Node 66 random traffic
dtnsim.node[66].app.enable = true
dtnsim.node[66].app.bundlesNumber = "15,19,15,3,11,20,8,2,1,6"
dtnsim.node[66].app.start = "94,31,77,50,56,49,12,71,23,31"
dtnsim.node[66].app.destinationEid = "163,218,185,103,105,231,51,182,209,28"
dtnsim.node[66].app.size = "200,500,500,100,100,100,500,50,500,200"
# Node 67 random traffic
dtnsim.node[67].app.enable = true
dtnsim.node[67].app.bundlesNumber = "25,16,12,15,2,2,5,12,8,3"
dtnsim.node[67].app.start = "78,83,5,41,53,70,29,17,58,61"
dtnsim.node[67].app.destinationEid = "47,191,186,173,117,96,227,226,143,14"
dtnsim.node[67].app.size = "500,200,200,100,50,200,200,500,100,200"
# Node 68 random traffic
dtnsim.node[68].app.enable = true
dtnsim.node[68].app.bundlesNumber = "13,1,5,9,13,7,22,21,4,3,2"
dtnsim.node[68].app.start = "30,79,37,22,63,12,42,28,25,23,26"
dtnsim.node[68].app.destinationEid = "224,177,176,49,220,74,239,15,63,153,118"
dtnsim.node[68].app.size = "100,500,200,500,50,500,50,100,500,200,100"
# Node 69 random traffic
dtnsim.node[69].app.enable = true
dtnsim.node[69].app.bundlesNumber = "18,18,10,20,3,13,17,1"
dtnsim.node[69].app.start = "97,55,21,51,60,53,47,98"
dtnsim.node[69].app.destinationEid = "103,140,57,95,110,112,60,114"
dtnsim.node[69].app.size = "50,50,500,100,200,100,200,200"
# Node 70 random traffic
dtnsim.node[70].app.enable = true
dtnsim.node[70].app.bundlesNumber = "2,16,20,10,7,8,1,14,17,3,1,1"
dtnsim.node[70].app.start = "13,100,89,41,100,57,3,31,35,49,91,88"
dtnsim.node[70].app.destinationEid = "35,75,153,169,101,126,40,171,150,233,199,20"
dtnsim.node[70].app.size = "100,50,500,50,100,500,50,200,200,500,100,500"
# Node 71 random traffic
dtnsim.node[71].app.enable = true
dtnsim.node[71].app.bundlesNumber = "3,13,9,19,25,24,6,1"
dtnsim.node[71].app.start = "83,59,70,13,46,9,93,10"
dtnsim.node[71].app.destinationEid = "102,235,188,107,140,180,154,62"
dtnsim.node[71].app.size = "100,500,100,50,50,100,200,500"
# Node 72 random traffic
dtnsim.node[72].app.enable = true
dtnsim.node[72].app.bundlesNumber = "12,22,15,8,23,16,3,1"
dtnsim.node[72].app.start = "97,35,16,7,97,26,42,31"
dtnsim.node[72].app.destinationEid = "24,1,228,111,129,63,111,27"
dtnsim.node[72].app.size = "200,100,100,50,50,500,50,50"
# Node 73 random traffic
dtnsim.node[73].app.enable = true
dtnsim.node[73].app.bundlesNumber = "24,12,8,4,3,19,25,3,2"
dtnsim.node[73].app.start = "20,50,66,57,61,27,73,2,43"
dtnsim.node[73].app.destinationEid = "77,43,151,125,15,155,135,226,50"
dtnsim.node[73].app.size = "100,200,500,50,50,500,100,50,100"
# Node 74 random traffic
dtnsim.node[74].app.enable = true
dtnsim.node[74].app.bundlesNumber = "5,8,18,14,19,3,18,4,4,2,2,1,2"
dtnsim.node[74].app.start = "77,70,58,44,38,72,68,36,84,90,22,33,66"
dtnsim.node[74].app.destinationEid = "239,43,4,56,169,37,217,35,19,37,96,213,66"
dtnsim.node[74].app.size = "200,50,500,50,100,500,100,500,200,50,100,50,50"
# Node 75 random traffic
dtnsim.node[75].app.enable = true
dtnsim.node[75].app.bundlesNumber = "6,12,19,15,4,8,8,18,1,4,1,1,3"
dtnsim.node[75].app.start = "62,79,89,19,67,91,23,73,35,92,65,66,75"
dtnsim.node[75].app.destinationEid = "121,128,173,171,213,193,103,181,223,236,11,211,123"
dtnsim.node[75].app.size = "50,50,200,500,50,200,500,200,200,50,100,500,500"
# Node 76 random traffic
dtnsim.node[76].app.enable = true
dtnsim.node[76].app.bundlesNumber = "3,16,20,21,25,10,3,2"
dtnsim.node[76].app.start = "67,42,82,39,20,44,58,94"
dtnsim.node[76].app.destinationEid = "226,198,139,139,146,188,81,108"
dtnsim.node[76].app.size = "100,200,200,100,200,200,50,100"
# Node 77 random traffic
dtnsim.node[77].app.enable = true
dtnsim.node[77].app.bundlesNumber = "2,16,8,16,5,11,6,15,18,1,1,1"
dtnsim.node[77].app.start = "51,53,28,50,28,47,83,58,2,64,32,76"
dtnsim.node[77].app.destinationEid = "233,129,31,108,128,124,235,37,68,216,107,134"
dtnsim.node[77].app.size = "500,500,200,200,200,500,50,50,200,100,200,200"
# Node 78 random traffic
dtnsim.node[78].app.enable = true
dtnsim.node[78].app.bundlesNumber = "18,1,21,10,8,11,24,2,3,1,1"
dtnsim.node[78].app.start = "78,15,81,75,25,99,52,22,89,85,27"
dtnsim.node[78].app.destinationEid = "59,107,61,71,69,180,37,63,52,183,196"
dtnsim.node[78].app.size = "200,500,500,50,50,500,50,200,200,500,50"
# Node 79 random traffic
dtnsim.node[79].app.enable = true
dtnsim.node[79].app.bundlesNumber = "9,24,23,4,1,25,11,3"
dtnsim.node[79].app.start = "34,33,78,71,21,85,51,22"
dtnsim.node[79].app.destinationEid = "33,239,52,35,234,139,96,230"
dtnsim.node[79].app.size = "50,100,200,50,50,100,50,200"
# Node 80 random traffic
dtnsim.node[80].app.enable = true
dtnsim.node[80].app.bundlesNumber = "8,14,12,25,18,19,1,1,1,1"
dtnsim.node[80].app.start = "67,54,2,51,29,82,16,29,83,40"
dtnsim.node[80].app.destinationEid = "118,28,142,188,183,226,180,39,189,223"
dtnsim.node[80].app.size = "50,100,200,200,50,50,500,500,200,200"
# Node 81 random traffic
dtnsim.node[81].app.enable = true
dtnsim.node[81].app.bundlesNumber = "5,21,24,20,16,7,2,3,2"
dtnsim.node[81].app.start = "80,47,7,59,40,17,94,57,53"
dtnsim.node[81].app.destinationEid = "100,161,144,194,94,214,180,142,136"
dtnsim.node[81].app.size = "100,100,50,50,200,50,100,50,50"
# Node 82 random traffic
dtnsim.node[82].app.enable = true
dtnsim.node[82].app.bundlesNumber = "24,1,14,10,5,17,18,3,6,2"
dtnsim.node[82].app.start = "33,43,35,22,23,92,41,18,84,92"
dtnsim.node[82].app.destinationEid = "199,135,35,22,107,163,98,47,160,172"
dtnsim.node[82].app.size = "100,50,500,500,200,200,50,500,200,50"
# Node 83 random traffic
dtnsim.node[83].app.enable = true
dtnsim.node[83].app.bundlesNumber = "2,6,3,10,3,3,13,25,23,5,3,2,2"
dtnsim.node[83].app.start = "2,49,45,97,39,18,80,88,5,37,89,17,19"
dtnsim.node[83].app.destinationEid = "201,191,219,124,10,90,92,65,81,13,189,159,30"
dtnsim.node[83].app.size = "50,200,500,500,100,50,100,50,100,500,500,100,500"
# Node 84 random traffic
dtnsim.node[84].app.enable = true
dtnsim.node[84].app.bundlesNumber = "6,8,19,21,24,17,1,1,1,1,1"
dtnsim.node[84].app.start = "49,10,59,84,40,54,45,16,45,27,32"
dtnsim.node[84].app.destinationEid = "128,226,142,188,24,239,118,176,33,92,188"
dtnsim.node[84].app.size = "500,200,200,500,500,200,100,100,500,200,200"
# Node 85 random traffic
dtnsim.node[85].app.enable = true
dtnsim.node[85].app.bundlesNumber = "2,11,8,20,5,18,9,24,1,2"
dtnsim.node[85].app.start = "6,1,23,52,24,13,31,29,19,11"
dtnsim.node[85].app.destinationEid = "135,182,176,98,24,88,140,2,143,235"
dtnsim.node[85].app.size = "200,200,500,200,200,100,200,50,100,100"
# Node 86 random traffic
dtnsim.node[86].app.enable = true
dtnsim.node[86].app.bundlesNumber = "11,12,14,24,25,1,8,2,2,1"
dtnsim.node[86].app.start = "92,20,21,40,68,58,44,63,6,68"
dtnsim.node[86].app.destinationEid = "215,139,147,129,20,151,220,22,167,15"
dtnsim.node[86].app.size = "100,50,200,500,200,200,100,50,50,50"
# Node 87 random traffic
dtnsim.node[87].app.enable = true
dtnsim.node[87].app.bundlesNumber = "16,17,20,2,18,25,1,1"
dtnsim.node[87].app.start = "84,60,3,55,52,32,95,19"
dtnsim.node[87].app.destinationEid = "40,72,19,8,156,13,222,18"
dtnsim.node[87].app.size = "500,200,500,100,200,100,50,50"
# Node 88 random traffic
dtnsim.node[88].app.enable = true
dtnsim.node[88].app.bundlesNumber = "1,7,2,16,25,15,16,17,1"
dtnsim.node[88].app.start = "28,90,74,1,1,25,50,80,66"
dtnsim.node[88].app.destinationEid = "197,186,56,96,236,59,92,94,30"
dtnsim.node[88].app.size = "50,200,500,500,200,100,50,200,50"
# Node 89 random traffic
dtnsim.node[89].app.enable = true
dtnsim.node[89].app.bundlesNumber = "7,11,19,6,6,23,23,4,1"
dtnsim.node[89].app.start = "73,51,67,69,34,27,99,14,56"
dtnsim.node[89].app.destinationEid = "102,222,159,101,211,106,136,237,123"
dtnsim.node[89].app.size = "50,500,200,500,500,500,50,200,200"
# Node 90 random traffic
dtnsim.node[90].app.enable = true
dtnsim.node[90].app.bundlesNumber = "14,6,10,23,4,6,23,9,3,2"
dtnsim.node[90].app.start = "3,65,56,50,35,10,26,72,100,31"
dtnsim.node[90].app.destinationEid = "155,219,196,21,50,175,166,192,126,218"
dtnsim.node[90].app.size = "500,100,500,200,200,50,100,500,50,500"
# Node 91 random traffic
dtnsim.node[91].app.enable = true
dtnsim.node[91].app.bundlesNumber = "11,25,1,6,16,12,4,12,7,4,1,1"
dtnsim.node[91].app.start = "36,80,42,95,46,77,61,8,13,33,32,43"
dtnsim.node[91].app.destinationEid = "83,59,106,32,66,163,137,105,171,42,103,164"
dtnsim.node[91].app.size = "100,200,200,100,200,100,50,500,500,500,50,50"
# Node 92 random traffic
dtnsim.node[92].app.enable = true
dtnsim.node[92].app.bundlesNumber = "16,5,14,8,22,9,23,2,1"
dtnsim.node[92].app.start = "21,39,80,38,73,57,35,95,53"
dtnsim.node[92].app.destinationEid = "51,27,217,238,227,21,215,200,198"
dtnsim.node[92].app.size = "200,100,100,100,50,200,500,100,100"
# Node 93 random traffic
dtnsim.node[93].app.enable = true