[General]
network = src.dtnsim										
repeat = 1
allow-object-stealing-on-deletion = true

# Simulation end time
sim-time-limit = 84600s

# Nodes quantity (identifiers (EiDs) matches their index, EiD=0 is ignored)			
dtnsim.nodesNumber = 120
dtnsim.node[*].icon = "satellite"

# Nodes's failure rates
dtnsim.node[*].fault.enable = true
dtnsim.node[*].fault.meanTTF = 40s
dtnsim.node[*].fault.meanTTR = 10s

dtnsim.node[*].dtn.routing = "cgrModel350"
dtnsim.node[*].dtn.printRoutingDebug = true

# --- Random Traffic Configuration ---
# Node 1 random traffic
dtnsim.node[1].app.enable = true
dtnsim.node[1].app.bundlesNumber = "10,13,20,18,17,3,18,1"
dtnsim.node[1].app.start = "18,26,91,88,49,35,91,89"
dtnsim.node[1].app.destinationEid = "7,22,81,50,14,78,35,69"
dtnsim.node[1].app.size = "500,100,50,50,100,500,50,200"
# Node 2 random traffic
dtnsim.node[2].app.enable = true
dtnsim.node[2].app.bundlesNumber = "11,11,4,24,16,25,6,3"
dtnsim.node[2].app.start = "100,84,13,29,65,50,87,85"
dtnsim.node[2].app.destinationEid = "92,51,44,20,70,63,112,58"
dtnsim.node[2].app.size = "50,200,100,100,50,500,100,50"
# Node 3 random traffic
dtnsim.node[3].app.enable = true
dtnsim.node[3].app.bundlesNumber = "17,7,13,12,16,16,8,5,3,2,1"
dtnsim.node[3].app.start = "19,1,20,89,69,92,52,100,19,10,61"
dtnsim.node[3].app.destinationEid = "37,9,30,7,47,61,111,20,78,43,31"
dtnsim.node[3].app.size = "200,100,50,500,200,200,200,50,100,500,500"
# Node 4 random traffic
dtnsim.node[4].app.enable = true
dtnsim.node[4].app.bundlesNumber = "11,24,5,20,18,4,17,1"
dtnsim.node[4].app.start = "66,63,95,26,61,51,33,42"
dtnsim.node[4].app.destinationEid = "115,117,10,34,51,31,23,35"
dtnsim.node[4].app.size = "100,100,500,200,100,200,500,200"
# Node 5 random traffic
dtnsim.node[5].app.enable = true
dtnsim.node[5].app.bundlesNumber = "19,4,6,15,15,17,3,5,13,3"
dtnsim.node[5].app.start = "78,19,59,2,65,41,98,12,68,77"
dtnsim.node[5].app.destinationEid = "50,41,87,43,99,94,101,102,94,23"
dtnsim.node[5].app.size = "100,100,50,500,50,500,500,200,50,50"
# Node 6 random traffic
dtnsim.node[6].app.enable = true
dtnsim.node[6].app.bundlesNumber = "6,3,15,10,6,18,1,5,18,16,1,1"
dtnsim.node[6].app.start = "54,51,98,98,74,100,31,66,54,62,23,53"
dtnsim.node[6].app.destinationEid = "26,3,29,84,26,117,96,66,39,38,1,90"
dtnsim.node[6].app.size = "200,50,200,500,50,100,50,100,50,100,100,100"
# Node 7 random traffic
dtnsim.node[7].app.enable = true
dtnsim.node[7].app.bundlesNumber = "20,19,4,3,13,3,9,1,22,6"
dtnsim.node[7].app.start = "4,32,71,90,54,23,57,99,29,74"
dtnsim.node[7].app.destinationEid = "52,94,28,68,117,16,117,48,114,68"
dtnsim.node[7].app.size = "50,100,500,200,500,100,50,200,100,100"
# Node 8 random traffic
dtnsim.node[8].app.enable = true
dtnsim.node[8].app.bundlesNumber = "23,17,21,22,10,7"
dtnsim.node[8].app.start = "83,44,66,48,49,67"
dtnsim.node[8].app.destinationEid = "22,6,5,70,39,16"
dtnsim.node[8].app.size = "200,500,500,500,200,500"
# Node 9 random traffic
dtnsim.node[9].app.enable = true
dtnsim.node[9].app.bundlesNumber = "13,18,2,8,6,12,21,2,8,4,4,2"
dtnsim.node[9].app.start = "58,70,11,22,89,19,10,92,47,3,97,80"
dtnsim.node[9].app.destinationEid = "114,39,38,36,23,39,119,96,68,19,1,79"
dtnsim.node[9].app.size = "100,100,500,500,100,50,100,200,100,100,200,100"
# Node 10 random traffic
dtnsim.node[10].app.enable = true
dtnsim.node[10].app.bundlesNumber = "11,2,22,17,12,18,2,8,7,1"
dtnsim.node[10].app.start = "73,16,62,49,45,84,95,87,99,1"
dtnsim.node[10].app.destinationEid = "66,22,92,65,30,5,88,113,97,13"
dtnsim.node[10].app.size = "100,500,100,500,100,100,50,500,500,500"
# Node 11 random traffic
dtnsim.node[11].app.enable = true
dtnsim.node[11].app.bundlesNumber = "17,20,5,16,9,10,9,7,2,4,1"
dtnsim.node[11].app.start = "55,85,93,33,69,69,17,80,30,71,16"
dtnsim.node[11].app.destinationEid = "100,22,97,118,13,96,41,81,42,46,83"
dtnsim.node[11].app.size = "500,50,100,200,500,50,50,500,50,500,100"
# Node 12 random traffic
dtnsim.node[12].app.enable = true
dtnsim.node[12].app.bundlesNumber = "13,1,14,24,14,23,11"
dtnsim.node[12].app.start = "89,1,30,77,77,65,88"
dtnsim.node[12].app.destinationEid = "30,6,75,115,101,103,118"
dtnsim.node[12].app.size = "100,500,200,50,50,50,500"
# Node 13 random traffic
dtnsim.node[13].app.enable = true
dtnsim.node[13].app.bundlesNumber = "23,5,9,8,8,13,18,5,2,5,2,2"
dtnsim.node[13].app.start = "94,66,40,64,79,6,61,73,96,2,74,4"
dtnsim.node[13].app.destinationEid = "48,79,74,109,80,112,4,83,110,30,84,94"
dtnsim.node[13].app.size = "200,200,500,50,200,200,500,200,500,500,200,500"
# Node 14 random traffic
dtnsim.node[14].app.enable = true
dtnsim.node[14].app.bundlesNumber = "16,2,5,4,7,7,3,23,4,19,6,1,3"
dtnsim.node[14].app.start = "20,55,2,41,20,68,73,8,1,64,90,16,17"
dtnsim.node[14].app.destinationEid = "28,106,53,65,7,76,99,66,103,2,29,49,81"
dtnsim.node[14].app.size = "500,50,100,200,100,200,500,100,500,100,50,50,200"
# Node 15 random traffic
dtnsim.node[15].app.enable = true
dtnsim.node[15].app.bundlesNumber = "21,23,6,1,9,22,17,1"
dtnsim.node[15].app.start = "93,44,47,73,16,51,31,37"
dtnsim.node[15].app.destinationEid = "62,92,20,62,104,92,37,93"
dtnsim.node[15].app.size = "200,100,100,200,100,100,50,500"
# Node 16 random traffic
dtnsim.node[16].app.enable = true
dtnsim.node[16].app.bundlesNumber = "2,24,19,16,16,17,6"
dtnsim.node[16].app.start = "88,79,42,81,38,46,74"
dtnsim.node[16].app.destinationEid = "99,14,18,82,21,68,5"
dtnsim.node[16].app.size = "200,50,50,50,500,50,50"
# Node 17 random traffic
dtnsim.node[17].app.enable = true
dtnsim.node[17].app.bundlesNumber = "17,24,17,10,22,1,4,2,2,1"
dtnsim.node[17].app.start = "54,84,34,37,58,64,59,68,65,41"
dtnsim.node[17].app.destinationEid = "4,40,76,37,26,71,58,117,52,73"
dtnsim.node[17].app.size = "500,200,100,50,50,200,100,200,50,500"
# Node 18 random traffic
dtnsim.node[18].app.enable = true
dtnsim.node[18].app.bundlesNumber = "4,16,1,15,10,10,15,1,25,1,1,1"
dtnsim.node[18].app.start = "57,78,56,69,52,46,82,28,34,38,65,6"
dtnsim.node[18].app.destinationEid = "20,50,83,60,38,69,52,19,47,95,19,83"
dtnsim.node[18].app.size = "100,50,200,50,500,200,100,200,200,500,500,50"
# Node 19 random traffic
dtnsim.node[19].app.enable = true
dtnsim.node[19].app.bundlesNumber = "16,23,6,6,1,10,11,23,3,1"
dtnsim.node[19].app.start = "38,27,70,76,56,99,44,48,14,83"
dtnsim.node[19].app.destinationEid = "27,98,3,117,42,107,93,59,92,46"
dtnsim.node[19].app.size = "100,200,50,200,100,100,100,200,50,50"
# Node 20 random traffic
dtnsim.node[20].app.enable = true
dtnsim.node[20].app.bundlesNumber = "13,7,5,14,24,14,14,5,2,2"
dtnsim.node[20].app.start = "64,29,90,20,70,64,8,68,94,64"
dtnsim.node[20].app.destinationEid = "88,116,62,80,64,90,41,12,5,43"
dtnsim.node[20].app.size = "100,50,200,200,200,100,500,500,100,50"
# Node 21 random traffic
dtnsim.node[21].app.enable = true
dtnsim.node[21].app.bundlesNumber = "17,8,11,23,19,8,12,1,1"
dtnsim.node[21].app.start = "19,12,62,60,78,11,60,70,93"
dtnsim.node[21].app.destinationEid = "111,33,10,15,17,1,31,103,27"
dtnsim.node[21].app.size = "50,500,100,100,200,100,500,200,500"
# Node 22 random traffic
dtnsim.node[22].app.enable = true
dtnsim.node[22].app.bundlesNumber = "12,11,15,11,17,16,8,2,7,1"
dtnsim.node[22].app.start = "52,70,74,76,43,91,68,15,96,38"
dtnsim.node[22].app.destinationEid = "94,44,72,110,39,116,86,32,72,108"
dtnsim.node[22].app.size = "200,500,50,500,100,50,200,50,500,200"
# Node 23 random traffic
dtnsim.node[23].app.enable = true
dtnsim.node[23].app.bundlesNumber = "18,23,17,19,8,9,2,1,1,1,1"
dtnsim.node[23].app.start = "75,78,99,54,81,54,98,95,34,38,81"
dtnsim.node[23].app.destinationEid = "119,113,50,22,86,93,10,40,58,116,21"
dtnsim.node[23].app.size = "200,100,100,200,200,200,50,500,50,50,100"
# Node 24 random traffic
dtnsim.node[24].app.enable = true
dtnsim.node[24].app.bundlesNumber = "15,15,22,25,16,6,1"
dtnsim.node[24].app.start = "89,97,36,50,69,31,90"
dtnsim.node[24].app.destinationEid = "75,110,91,17,37,52,19"
dtnsim.node[24].app.size = "50,50,200,100,200,500,200"
# Node 25 random traffic
dtnsim.node[25].app.enable = true
dtnsim.node[25].app.bundlesNumber = "20,19,23,8,22,7,1"
dtnsim.node[25].app.start = "91,3,24,44,96,66,25"
dtnsim.node[25].app.destinationEid = "89,94,54,113,44,89,59"
dtnsim.node[25].app.size = "500,500,200,100,500,100,500"
# Node 26 random traffic
dtnsim.node[26].app.enable = true
dtnsim.node[26].app.bundlesNumber = "14,14,18,10,18,18,6,1,1"
dtnsim.node[26].app.start = "34,49,32,77,97,67,24,24,32"
dtnsim.node[26].app.destinationEid = "89,8,112,42,116,68,10,72,51"
dtnsim.node[26].app.size = "500,200,100,50,200,50,100,200,200"
# Node 27 random traffic
dtnsim.node[27].app.enable = true
dtnsim.node[27].app.bundlesNumber = "9,15,24,7,20,7,4,7,1,6"
dtnsim.node[27].app.start = "65,80,2,79,97,3,98,51,31,83"
dtnsim.node[27].app.destinationEid = "104,44,46,25,117,60,20,105,98,105"
dtnsim.node[27].app.size = "200,500,100,50,200,100,100,50,200,100"
# Node 28 random traffic
dtnsim.node[28].app.enable = true
dtnsim.node[28].app.bundlesNumber = "5,1,23,8,15,6,18,6,18"
dtnsim.node[28].app.start = "63,82,83,14,94,57,46,13,2"
dtnsim.node[28].app.destinationEid = "25,112,98,72,31,92,12,30,55"
dtnsim.node[28].app.size = "500,100,500,100,50,100,200,200,200"
# Node 29 random traffic
dtnsim.node[29].app.enable = true
dtnsim.node[29].app.bundlesNumber = "2,3,3,14,7,16,9,18,23,4,1"
dtnsim.node[29].app.start = "17,41,16,24,59,66,5,79,67,24,71"
dtnsim.node[29].app.destinationEid = "73,93,9,65,77,2,107,70,18,88,7"
dtnsim.node[29].app.size = "500,100,100,50,500,100,500,200,500,500,50"
# Node 30 random traffic
dtnsim.node[30].app.enable = true
dtnsim.node[30].app.bundlesNumber = "16,1,24,20,18,10,1,1,8,1"
dtnsim.node[30].app.start = "43,98,53,46,2,63,56,72,78,59"
dtnsim.node[30].app.destinationEid = "34,105,113,73,44,45,103,99,95,18"
dtnsim.node[30].app.size = "100,500,500,200,50,500,200,50,50,50"
# Node 31 random traffic
dtnsim.node[31].app.enable = true
dtnsim.node[31].app.bundlesNumber = "13,23,22,7,11,20,3,1"
dtnsim.node[31].app.start = "76,50,56,35,25,79,11,96"
dtnsim.node[31].app.destinationEid = "2,83,9,17,9,35,27,59"
dtnsim.node[31].app.size = "100,200,500,100,500,500,50,500"
# Node 32 random traffic
dtnsim.node[32].app.enable = true
dtnsim.node[32].app.bundlesNumber = "6,16,3,5,18,12,18,20,2"
dtnsim.node[32].app.start = "96,4,56,73,68,74,72,17,27"
dtnsim.node[32].app.destinationEid = "45,34,111,103,96,54,34,65,80"
dtnsim.node[32].app.size = "50,100,200,50,50,500,100,500,100"
# Node 33 random traffic
dtnsim.node[33].app.enable = true
dtnsim.node[33].app.bundlesNumber = "11,20,23,20,22,3,1"
dtnsim.node[33].app.start = "76,57,79,73,79,91,70"
dtnsim.node[33].app.destinationEid = "3,70,54,55,29,20,22"
dtnsim.node[33].app.size = "50,100,100,50,500,200,500"
# Node 34 random traffic
dtnsim.node[34].app.enable = true
dtnsim.node[34].app.bundlesNumber = "9,10,24,22,16,16,3"
dtnsim.node[34].app.start = "100,47,71,40,18,56,85"
dtnsim.node[34].app.destinationEid = "27,30,1,30,71,112,69"
dtnsim.node[34].app.size = "50,50,50,500,500,50,500"
# Node 35 random traffic
dtnsim.node[35].app.enable = true
dtnsim.node[35].app.bundlesNumber = "25,22,25,7,7,3,11"
dtnsim.node[35].app.start = "1,14,57,47,8,2,2"
dtnsim.node[35].app.destinationEid = "2,69,90,68,22,113,38"
dtnsim.node[35].app.size = "100,200,100,100,200,500,100"
# Node 36 random traffic
dtnsim.node[36].app.enable = true
dtnsim.node[36].app.bundlesNumber = "7,2,25,18,3,18,3,10,3,9,1,1"
dtnsim.node[36].app.start = "61,23,83,52,34,53,37,43,28,45,79,91"
dtnsim.node[36].app.destinationEid = "6,99,68,46,30,119,89,11,74,97,120,89"
dtnsim.node[36].app.size = "500,50,100,500,500,500,100,200,200,500,50,500"
# Node 37 random traffic
dtnsim.node[37].app.enable = true
dtnsim.node[37].app.bundlesNumber = "9,2,20,15,10,21,14,8,1"
dtnsim.node[37].app.start = "9,62,21,67,49,40,59,35,78"
dtnsim.node[37].app.destinationEid = "61,35,50,76,51,35,66,113,68"
dtnsim.node[37].app.size = "50,50,100,500,500,200,200,50,50"
# Node 38 random traffic
dtnsim.node[38].app.enable = true
dtnsim.node[38].app.bundlesNumber = "8,11,4,3,17,21,7,25,3,1"
dtnsim.node[38].app.start = "85,52,94,51,49,71,38,72,34,40"
dtnsim.node[38].app.destinationEid = "100,10,33,98,107,61,50,45,78,27"
dtnsim.node[38].app.size = "100,200,50,50,100,500,50,200,200,500"
# Node 39 random traffic
dtnsim.node[39].app.enable = true
dtnsim.node[39].app.bundlesNumber = "9,3,8,18,22,5,3,25,6,1"
dtnsim.node[39].app.start = "51,44,88,44,80,56,75,32,12,30"
dtnsim.node[39].app.destinationEid = "115,105,40,4,114,60,101,66,53,9"
dtnsim.node[39].app.size = "50,500,100,500,100,500,500,500,50,500"
# Node 40 random traffic
dtnsim.node[40].app.enable = true
dtnsim.node[40].app.bundlesNumber = "23,2,21,23,10,2,18,1"
dtnsim.node[40].app.start = "28,77,85,89,67,45,80,90"
dtnsim.node[40].app.destinationEid = "120,107,42,87,100,107,32,38"
dtnsim.node[40].app.size = "100,200,200,50,200,500,100,500"
# Node 41 random traffic
dtnsim.node[41].app.enable = true
dtnsim.node[41].app.bundlesNumber = "16,22,23,11,9,12,4,2,1"
dtnsim.node[41].app.start = "83,7,27,58,38,88,5,91,87"
dtnsim.node[41].app.destinationEid = "99,96,1,18,70,9,26,29,23"
dtnsim.node[41].app.size = "500,500,500,50,500,500,100,500,500"
# Node 42 random traffic
dtnsim.node[42].app.enable = true
dtnsim.node[42].app.bundlesNumber = "13,2,13,6,5,13,23,7,3,9,5,1"
dtnsim.node[42].app.start = "81,14,47,97,80,74,87,100,82,72,68,93"
dtnsim.node[42].app.destinationEid = "37,49,76,59,95,100,23,116,9,50,36,98"
dtnsim.node[42].app.size = "200,100,100,100,50,500,200,200,50,50,50,200"
# Node 43 random traffic
dtnsim.node[43].app.enable = true
dtnsim.node[43].app.bundlesNumber = "6,24,25,11,15,13,5,1"
dtnsim.node[43].app.start = "52,16,65,54,44,21,32,41"
dtnsim.node[43].app.destinationEid = "27,22,38,62,55,50,99,17"
dtnsim.node[43].app.size = "200,100,100,200,50,200,50,100"
# Node 44 random traffic
dtnsim.node[44].app.enable = true
dtnsim.node[44].app.bundlesNumber = "20,13,5,17,14,5,15,9,1,1"
dtnsim.node[44].app.start = "28,75,94,14,66,6,37,14,45,95"
dtnsim.node[44].app.destinationEid = "77,4,31,89,55,26,59,107,20,58"
dtnsim.node[44].app.size = "50,50,100,200,200,200,500,200,100,50"
# Node 45 random traffic
dtnsim.node[45].app.enable = true
dtnsim.node[45].app.bundlesNumber = "25,22,19,13,8,12,1"
dtnsim.node[45].app.start = "7,60,80,73,16,37,100"
dtnsim.node[45].app.destinationEid = "111,73,80,17,14,60,97"
dtnsim.node[45].app.size = "100,200,50,200,500,50,50"
# Node 46 random traffic
dtnsim.node[46].app.enable = true
dtnsim.node[46].app.bundlesNumber = "2,1,10,21,12,21,8,22,2,1"
dtnsim.node[46].app.start = "53,26,90,11,55,47,34,79,45,53"
dtnsim.node[46].app.destinationEid = "77,12,75,112,9,102,40,82,29,85"
dtnsim.node[46].app.size = "200,100,500,500,200,50,100,500,200,50"
# Node 47 random traffic
dtnsim.node[47].app.enable = true
dtnsim.node[47].app.bundlesNumber = "17,7,18,22,12,3,14,3,2,2"
dtnsim.node[47].app.start = "88,91,71,57,70,9,90,46,18,6"
dtnsim.node[47].app.destinationEid = "70,88,27,15,18,45,5,118,111,62"
dtnsim.node[47].app.size = "50,200,500,500,500,100,500,50,100,50"
# Node 48 random traffic
dtnsim.node[48].app.enable = true
dtnsim.node[48].app.bundlesNumber = "16,4,23,6,19,9,3,13,1,3,1,1,1"
dtnsim.node[48].app.start = "15,22,41,55,63,26,71,60,15,71,99,15,4"
dtnsim.node[48].app.destinationEid = "34,71,55,94,45,32,45,75,52,38,62,87,92"
dtnsim.node[48].app.size = "50,50,50,200,50,50,100,50,500,500,500,100,500"
# Node 49 random traffic
dtnsim.node[49].app.enable = true
dtnsim.node[49].app.bundlesNumber = "18,9,23,18,1,25,5,1"
dtnsim.node[49].app.start = "6,18,66,19,89,70,90,26"
dtnsim.node[49].app.destinationEid = "45,61,58,32,85,26,57,34"
dtnsim.node[49].app.size = "50,200,100,100,50,100,500,500"
# Node 50 random traffic
dtnsim.node[50].app.enable = true
dtnsim.node[50].app.bundlesNumber = "13,13,17,4,13,6,5,10,19"
dtnsim.node[50].app.start = "60,34,40,96,10,11,28,95,4"
dtnsim.node[50].app.destinationEid = "113,58,32,105,42,70,31,56,71"
dtnsim.node[50].app.size = "50,200,50,200,50,50,100,200,500"
# Node 51 random traffic
dtnsim.node[51].app.enable = true
dtnsim.node[51].app.bundlesNumber = "9,3,17,25,2,15,1,21,2,4,1"
dtnsim.node[51].app.start = "18,60,11,92,93,22,94,95,84,46,75"
dtnsim.node[51].app.destinationEid = "21,19,92,87,33,36,109,56,36,81,110"
dtnsim.node[51].app.size = "100,200,50,500,500,200,200,100,100,500,50"
# Node 52 random traffic
dtnsim.node[52].app.enable = true
dtnsim.node[52].app.bundlesNumber = "14,21,16,16,4,25,4"
dtnsim.node[52].app.start = "40,80,31,85,63,71,65"
dtnsim.node[52].app.destinationEid = "87,106,119,19,16,88,16"
dtnsim.node[52].app.size = "100,100,50,50,100,100,100"
# Node 53 random traffic
dtnsim.node[53].app.enable = true
dtnsim.node[53].app.bundlesNumber = "17,12,1,15,8,5,16,5,10,2,9"
dtnsim.node[53].app.start = "67,29,49,23,63,97,77,74,39,20,52"
dtnsim.node[53].app.destinationEid = "8,19,10,115,17,23,51,88,6,111,87"
dtnsim.node[53].app.size = "50,500,50,500,50,500,50,50,50,100,50"
# Node 54 random traffic
dtnsim.node[54].app.enable = true
dtnsim.node[54].app.bundlesNumber = "5,8,8,18,25,15,7,10,1,1,1,1"
dtnsim.node[54].app.start = "93,37,24,2,98,53,43,46,7,42,99,29"
dtnsim.node[54].app.destinationEid = "87,62,27,92,114,111,78,39,26,71,81,24"
dtnsim.node[54].app.size = "500,100,500,50,500,500,500,500,50,500,100,500"
# Node 55 random traffic
dtnsim.node[55].app.enable = true
dtnsim.node[55].app.bundlesNumber = "8,25,7,3,11,18,21,1,5,1"
dtnsim.node[55].app.start = "60,60,73,52,7,48,92,5,89,16"
dtnsim.node[55].app.destinationEid = "46,7,39,83,106,117,89,80,63,116"
dtnsim.node[55].app.size = "100,200,100,50,200,50,50,100,50,50"
# Node 56 random traffic
dtnsim.node[56].app.enable = true
dtnsim.node[56].app.bundlesNumber = "5,22,4,10,10,16,10,18,2,1,1,1"
dtnsim.node[56].app.start = "61,65,54,17,8,79,77,81,55,84,99,25"
dtnsim.node[56].app.destinationEid = "34,25,42,34,9,63,79,42,16,4,14,83"
dtnsim.node[56].app.size = "100,100,50,50,200,100,500,50,50,100,100,200"
# Node 57 random traffic
dtnsim.node[57].app.enable = true
dtnsim.node[57].app.bundlesNumber = "17,4,7,1,2,23,21,25"
dtnsim.node[57].app.start = "16,19,25,32,99,61,56,81"
dtnsim.node[57].app.destinationEid = "37,8,69,11,1,105,88,60"
dtnsim.node[57].app.size = "500,50,50,200,200,50,200,100"
# Node 58 random traffic
dtnsim.node[58].app.enable = true
dtnsim.node[58].app.bundlesNumber = "22,13,4,11,11,13,4,13,9"
dtnsim.node[58].app.start = "58,72,61,26,72,31,69,19,44"
dtnsim.node[58].app.destinationEid = "59,30,52,70,8,60,1,55,61"
dtnsim.node[58].app.size = "50,50,50,100,500,200,500,500,200"
# Node 59 random traffic
dtnsim.node[59].app.enable = true
dtnsim.node[59].app.bundlesNumber = "22,7,15,7,1,17,18,8,2,1,1,1"
dtnsim.node[59].app.start = "77,96,86,47,16,27,26,22,46,79,77,74"
dtnsim.node[59].app.destinationEid = "60,88,72,5,87,92,95,109,49,15,97,27"
dtnsim.node[59].app.size = "500,200,500,200,100,200,500,50,50,50,50,500"
# Node 60 random traffic
dtnsim.node[60].app.enable = true
dtnsim.node[60].app.bundlesNumber = "1,1,8,12,8,21,12,21,3,4,8,1"
dtnsim.node[60].app.start = "1,93,64,7,32,6,26,4,44,2,61,58"
dtnsim.node[60].app.destinationEid = "25,92,24,24,38,19,57,42,120,51,31,43"
dtnsim.node[60].app.size = "100,100,500,500,200,50,500,50,50,100,100,100"
# Node 61 random traffic
dtnsim.node[61].app.enable = true
dtnsim.node[61].app.bundlesNumber = "24,16,13,17,6,17,5,2"
dtnsim.node[61].app.start = "80,49,15,71,52,96,70,45"
dtnsim.node[61].app.destinationEid = "6,62,7,117,78,15,118,99"
dtnsim.node[61].app.size = "200,100,100,200,500,50,200,500"
# Node 62 random traffic
dtnsim.node[62].app.enable = true
dtnsim.node[62].app.bundlesNumber = "7,23,10,18,12,8,1,5,9,6,1"
dtnsim.node[62].app.start = "44,99,39,68,44,32,6,89,43,4,46"
dtnsim.node[62].app.destinationEid = "75,117,56,15,92,96,77,44,24,55,97"
dtnsim.node[62].app.size = "100,100,200,50,100,200,500,100,500,500,200"
# Node 63 random traffic
dtnsim.node[63].app.enable = true
dtnsim.node[63].app.bundlesNumber = "15,1,5,20,19,13,19,8"
dtnsim.node[63].app.start = "24,54,50,53,64,36,75,18"
dtnsim.node[63].app.destinationEid = "78,36,19,100,75,109,77,97"
dtnsim.node[63].app.size = "200,200,100,50,50,200,200,500"
# Node 64 random traffic
dtnsim.node[64].app.enable = true
dtnsim.node[64].app.bundlesNumber = "12,22,19,16,3,25,1,2"
dtnsim.node[64].app.start = "19,41,17,24,24,92,15,3"
dtnsim.node[64].app.destinationEid = "43,82,116,95,32,114,23,86"
dtnsim.node[64].app.size = "200,100,100,200,100,200,50,100"
# Node 65 random traffic
dtnsim.node[65].app.enable = true
dtnsim.node[65].app.bundlesNumber = "4,19,2,10,6,1,24,16,14,1,1,2"
dtnsim.node[65].app.start = "83,40,88,21,31,95,35,88,10,49,32,28"
dtnsim.node[65].app.destinationEid = "43,67,85,54,118,43,106,48,32,96,97,3"
dtnsim.node[65].app.size = "200,50,200,500,50,200,500,50,100,200,50,200"
# Node 66 random traffic
dtnsim.node[66].app.enable = true
dtnsim.node[66].app.bundlesNumber = "18,7,21,15,3,9,23,3,1"
dtnsim.node[66].app.start = "27,55,93,55,32,42,81,91,1"
dtnsim.node[66].app.destinationEid = "98,46,50,2,75,98,91,87,65"
dtnsim.node[66].app.size = "200,50,500,100,100,200,200,100,50"
# Node 67 random traffic
dtnsim.node[67].app.enable = true
dtnsim.node[67].app.bundlesNumber = "16,16,15,3,19,1,11,8,10,1"
dtnsim.node[67].app.start = "47,58,65,34,73,79,56,37,67,46"
dtnsim.node[67].app.destinationEid = "17,101,48,68,64,15,75,32,71,47"
dtnsim.node[67].app.size = "500,500,50,50,500,100,100,100,100,200"
# Node 68 random traffic
dtnsim.node[68].app.enable = true
dtnsim.node[68].app.bundlesNumber = "5,2,20,18,1,19,8,22,3,2"
dtnsim.node[68].app.start = "33,21,69,62,44,61,85,42,3,17"
dtnsim.node[68].app.destinationEid = "41,28,106,66,91,74,84,10,43,62"
dtnsim.node[68].app.size = "50,500,50,100,200,200,500,200,500,50"
# Node 69 random traffic
dtnsim.node[69].app.enable = true
dtnsim.node[69].app.bundlesNumber = "25,16,9,23,10,16,1"
dtnsim.node[69].app.start = "58,98,58,26,43,27,47"
dtnsim.node[69].app.destinationEid = "16,25,6,78,96,79,89"
dtnsim.node[69].app.size = "500,50,200,200,200,50,50"
# Node 70 random traffic
dtnsim.node[70].app.enable = true
dtnsim.node[70].app.bundlesNumber = "16,3,23,25,10,9,14"
dtnsim.node[70].app.start = "32,12,67,19,64,69,32"
dtnsim.node[70].app.destinationEid = "108,73,71,75,5,40,119"
dtnsim.node[70].app.size = "50,500,200,50,500,200,200"
# Node 71 random traffic
dtnsim.node[71].app.enable = true
dtnsim.node[71].app.bundlesNumber = "6,17,22,21,4,24,2,2,1,1"
dtnsim.node[71].app.start = "81,6,41,97,46,16,20,41,28,90"
dtnsim.node[71].app.destinationEid = "44,108,87,100,44,119,19,27,58,66"
dtnsim.node[71].app.size = "50,50,100,50,100,500,50,200,200,100"
# Node 72 random traffic
dtnsim.node[72].app.enable = true
dtnsim.node[72].app.bundlesNumber = "12,4,23,20,17,9,3,8,1,3"
dtnsim.node[72].app.start = "71,79,52,53,91,22,97,46,94,33"
dtnsim.node[72].app.destinationEid = "5,91,83,103,45,73,37,38,85,59"
dtnsim.node[72].app.size = "500,200,200,50,50,500,200,200,200,500"
# Node 73 random traffic
dtnsim.node[73].app.enable = true
dtnsim.node[73].app.bundlesNumber = "9,14,25,13,24,5,7,1,1,1"
dtnsim.node[73].app.start = "91,45,85,75,72,2,88,11,10,72"
dtnsim.node[73].app.destinationEid = "111,37,23,17,52,91,58,81,34,92"
dtnsim.node[73].app.size = "50,200,500,500,100,100,200,200,50,50"
# Node 74 random traffic
dtnsim.node[74].app.enable = true
dtnsim.node[74].app.bundlesNumber = "18,5,17,25,25,1,5,4"
dtnsim.node[74].app.start = "32,38,40,11,21,61,92,44"
dtnsim.node[74].app.destinationEid = "42,69,22,36,31,46,60,116"
dtnsim.node[74].app.size = "200,200,200,500,500,50,500,50"
# Node 75 random traffic
dtnsim.node[75].app.enable = true
dtnsim.node[75].app.bundlesNumber = "23,5,15,17,25,3,10,2"
dtnsim.node[75].app.start = "54,41,17,69,74,89,31,8"
dtnsim.node[75].app.destinationEid = "100,10,87,10,19,42,56,94"
dtnsim.node[75].app.size = "200,50,200,500,200,200,200,200"
# Node 76 random traffic
dtnsim.node[76].app.enable = true
dtnsim.node[76].app.bundlesNumber = "24,16,1,6,12,8,10,3,18,1,1"
dtnsim.node[76].app.start = "62,86,66,20,76,77,69,63,84,22,64"
dtnsim.node[76].app.destinationEid = "110,8,40,46,29,23,46,48,12,2,40"
dtnsim.node[76].app.size = "50,500,100,100,200,500,500,100,200,200,100"
# Node 77 random traffic
dtnsim.node[77].app.enable = true
dtnsim.node[77].app.bundlesNumber = "19,22,5,14,16,17,1,4,2"
dtnsim.node[77].app.start = "29,60,30,30,4,75,16,12,95"
dtnsim.node[77].app.destinationEid = "107,85,24,27,74,76,20,117,24"
dtnsim.node[77].app.size = "100,500,200,100,500,50,200,500,500"
# Node 78 random traffic
dtnsim.node[78].app.enable = true
dtnsim.node[78].app.bundlesNumber = "16,1,8,11,11,2,15,18,17,1"
dtnsim.node[78].app.start = "18,86,74,31,13,85,49,17,38,100"
dtnsim.node[78].app.destinationEid = "94,77,16,5,37,105,57,62,40,91"
dtnsim.node[78].app.size = "100,100,200,200,100,100,100,200,100,200"
# Node 79 random traffic
dtnsim.node[79].app.enable = true
dtnsim.node[79].app.bundlesNumber = "16,22,10,2,21,13,8,5,1,1,1"
dtnsim.node[79].app.start = "28,14,41,18,30,90,44,42,31,7,30"
dtnsim.node[79].app.destinationEid = "51,48,58,32,47,104,112,71,37,35,45"
dtnsim.node[79].app.size = "100,50,200,500,500,100,50,200,100,100,100"
# Node 80 random traffic
dtnsim.node[80].app.enable = true
dtnsim.node[80].app.bundlesNumber = "2,15,8,24,12,25,2,1,7,1,1,2"
dtnsim.node[80].app.start = "13,64,19,24,100,28,54,92,30,3,89,27"
dtnsim.node[80].app.destinationEid = "85,63,75,41,97,26,90,21,13,99,117,112"
dtnsim.node[80].app.size = "200,500,500,100,100,200,50,100,200,500,200,100"
# Node 81 random traffic
dtnsim.node[81].app.enable = true
dtnsim.node[81].app.bundlesNumber = "19,11,23,19,21,1,5,1"
dtnsim.node[81].app.start = "76,97,87,99,38,26,38,79"
dtnsim.node[81].app.destinationEid = "34,2,6,64,26,60,119,19"
dtnsim.node[81].app.size = "200,200,500,500,500,200,200,100"
# Node 82 random traffic
dtnsim.node[82].app.enable = true
dtnsim.node[82].app.bundlesNumber = "8,19,10,15,11,2,9,22,1,3"
dtnsim.node[82].app.start = "88,71,3,61,14,20,8,58,96,32"
dtnsim.node[82].app.destinationEid = "18,50,43,99,100,79,92,91,35,44"
dtnsim.node[82].app.size = "100,50,50,200,200,200,500,500,50,500"
# Node 83 random traffic
dtnsim.node[83].app.enable = true
dtnsim.node[83].app.bundlesNumber = "13,23,16,20,24,4"
dtnsim.node[83].app.start = "80,59,18,37,19,56"
dtnsim.node[83].app.destinationEid = "85,25,19,70,61,26"
dtnsim.node[83].app.size = "500,50,500,100,50,50"
# Node 84 random traffic
dtnsim.node[84].app.enable = true
dtnsim.node[84].app.bundlesNumber = "11,7,22,2,2,12,24,5,5,1,3,1,3,1,1"
dtnsim.node[84].app.start = "27,37,87,34,29,69,24,38,52,23,78,57,3,74,34"
dtnsim.node[84].app.destinationEid = "82,49,2,77,41,48,43,6,119,24,31,110,41,58,24"
dtnsim.node[84].app.size = "500,200,100,50,50,200,200,500,500,200,50,50,100,500,500"
# Node 85 random traffic
dtnsim.node[85].app.enable = true
dtnsim.node[85].app.bundlesNumber = "21,22,16,11,3,18,5,3,1"
dtnsim.node[85].app.start = "98,45,33,10,71,81,33,54,56"
dtnsim.node[85].app.destinationEid = "1,34,61,12,113,15,38,33,117"
dtnsim.node[85].app.size = "50,500,500,100,100,100,100,500,100"
# Node 86 random traffic
dtnsim.node[86].app.enable = true
dtnsim.node[86].app.bundlesNumber = "1,19,17,4,6,8,8,1,1,15,5,6,4,2,3"
dtnsim.node[86].app.start = "54,12,21,40,66,93,25,86,1,22,69,70,79,60,17"
dtnsim.node[86].app.destinationEid = "12,73,33,80,56,70,97,119,31,7,11,83,99,87,2"
dtnsim.node[86].app.size = "200,50,500,200,50,50,500,50,200,500,500,50,200,100,500"
# Node 87 random traffic
dtnsim.node[87].app.enable = true
dtnsim.node[87].app.bundlesNumber = "3,16,3,18,13,15,23,8,1"
dtnsim.node[87].app.start = "20,94,62,32,79,72,27,97,49"
dtnsim.node[87].app.destinationEid = "70,45,33,22,5,78,49,59,81"
dtnsim.node[87].app.size = "50,500,200,500,50,50,50,500,100"
# Node 88 random traffic
dtnsim.node[88].app.enable = true
dtnsim.node[88].app.bundlesNumber = "12,23,10,17,10,25,3"
dtnsim.node[88].app.start = "55,83,51,80,77,6,35"
dtnsim.node[88].app.destinationEid = "110,89,119,51,24,77,87"
dtnsim.node[88].app.size = "500,200,200,200,50,50,500"
# Node 89 random traffic
dtnsim.node[89].app.enable = true
dtnsim.node[89].app.bundlesNumber = "11,7,9,23,13,22,5,3,7"
dtnsim.node[89].app.start = "6,35,13,81,9,77,15,64,17"
dtnsim.node[89].app.destinationEid = "7,95,111,44,84,81,88,26,8"
dtnsim.node[89].app.size = "200,500,200,200,50,200,500,500,500"
# Node 90 random traffic
dtnsim.node[90].app.enable = true
dtnsim.node[90].app.bundlesNumber = "1,4,12,3,16,7,2,22,12,7,4,8,2"
dtnsim.node[90].app.start = "21,44,72,24,43,42,17,27,49,63,81,67,80"
dtnsim.node[90].app.destinationEid = "106,79,10,12,89,32,80,35,98,18,105,45,30"
dtnsim.node[90].app.size = "200,500,100,500,50,500,200,100,200,100,100,50,50"
# Node 91 random traffic
dtnsim.node[91].app.enable = true
dtnsim.node[91].app.bundlesNumber = "11,13,5,14,20,3,19,1,11,1,2"
dtnsim.node[91].app.start = "100,55,54,11,14,41,74,97,60,73,6"
dtnsim.node[91].app.destinationEid = "12,12,74,1,40,37,117,72,94,22,92"
dtnsim.node[91].app.size = "100,100,200,100,500,100,100,500,50,50,200"
# Node 92 random traffic
dtnsim.node[92].app.enable = true
dtnsim.node[92].app.bundlesNumber = "20,16,1,7,1,7,4,7,25,2,9,1"
dtnsim.node[92].app.start = "66,51,26,19,31,52,84,67,65,32,36,46"
dtnsim.node[92].app.destinationEid = "68,120,65,31,20,80,75,38,32,73,61,19"
dtnsim.node[92].app.size = "200,500,200,50,500,100,500,100,100,100,500,50"
# Node 93 random traffic
dtnsim.node[93].app.enable = true
dtnsim.node[93].app.bundlesNumber = "4,15,25,22,16,10,4,3,1"
dtnsim.node[93].app.start = "53,39,10,63,38,84,90,32,12"
dtnsim.node[93].app.destinationEid = "78,16,104,39,32,105,73,117,111"
dtnsim.node[93].app.size = "50,50,200,50,50,500,100,200,500"
# Node 94 random traffic
dtnsim.node[94].app.enable = true
dtnsim.node[94].app.bundlesNumber = "13,8,17,12,11,18,14,6,1"
dtnsim.node[94].app.start = "22,73,69,7,31,16,36,52,32"
dtnsim.node[94].app.destinationEid = "104,87,97,16,25,13,102,84,111"
dtnsim.node[94].app.size = "50,200,100,200,200,50,50,50,50"
# Node 95 random traffic
dtnsim.node[95].app.enable = true