[General]
network = src.dtnsim										
repeat = 1
allow-object-stealing-on-deletion = true

# Simulation end time
sim-time-limit = 84600s

# Nodes quantity (identifiers (EiDs) matches their index, EiD=0 is ignored)			
dtnsim.nodesNumber = 360
dtnsim.node[*].icon = "satellite"

# Nodes's failure rates
dtnsim.node[*].fault.enable = false
dtnsim.node[*].fault.meanTTF = 0s
dtnsim.node[*].fault.meanTTR = 0s

# Mobility
dtnsim.node[*].hasMobility = true
dtnsim.node[*].norad.satIndex = parentIndex()
dtnsim.node[*].norad.satName = "sat"
**.updateInterval = 20s
**.numOfSats = 360
**.satPerPlane = 18
**.altitude = 540
**.planes = 20
**.phaseOffset = 11

dtnsim.node[*].dtn.routing = "antop"
dtnsim.node[*].dtn.printRoutingDebug = true

# --- Random Traffic Configuration ---
# Node 1 random traffic
dtnsim.node[1].app.enable = true
dtnsim.node[1].app.bundlesNumber = "8,17,6,4,15,2,5,6,23,3,8,2,1"
dtnsim.node[1].app.start = "56,64,25,61,8,88,15,5,57,35,87,15,66"
dtnsim.node[1].app.destinationEid = "321,27,85,330,92,354,294,316,142,51,92,326,201"
dtnsim.node[1].app.size = "100,100,100,500,500,500,500,200,200,50,200,200,500"
# Node 2 random traffic
dtnsim.node[2].app.enable = true
dtnsim.node[2].app.bundlesNumber = "14,4,20,15,17,10,4,2,13,1"
dtnsim.node[2].app.start = "95,65,59,39,69,29,47,39,85,50"
dtnsim.node[2].app.destinationEid = "103,78,71,113,160,138,133,293,312,212"
dtnsim.node[2].app.size = "50,200,50,500,200,100,500,50,500,100"
# Node 3 random traffic
dtnsim.node[3].app.enable = true
dtnsim.node[3].app.bundlesNumber = "20,19,16,25,3,14,3"
dtnsim.node[3].app.start = "96,61,28,43,92,23,4"
dtnsim.node[3].app.destinationEid = "167,119,11,148,4,240,203"
dtnsim.node[3].app.size = "200,100,50,100,200,500,500"
# Node 4 random traffic
dtnsim.node[4].app.enable = true
dtnsim.node[4].app.bundlesNumber = "23,15,10,6,13,9,15,3,4,1,1"
dtnsim.node[4].app.start = "28,41,67,2,37,4,24,57,11,55,17"
dtnsim.node[4].app.destinationEid = "222,38,172,233,312,248,320,44,251,258,320"
dtnsim.node[4].app.size = "100,500,100,100,500,100,100,200,50,50,100"
# Node 5 random traffic
dtnsim.node[5].app.enable = true
dtnsim.node[5].app.bundlesNumber = "10,17,2,16,11,3,24,2,5,10"
dtnsim.node[5].app.start = "72,71,4,92,53,65,90,54,61,17"
dtnsim.node[5].app.destinationEid = "238,28,172,148,85,187,66,359,305,320"
dtnsim.node[5].app.size = "500,50,200,200,200,100,500,100,200,200"
# Node 6 random traffic
dtnsim.node[6].app.enable = true
dtnsim.node[6].app.bundlesNumber = "6,3,3,8,13,7,23,14,9,3,2,2,2,1,1,1,2"
dtnsim.node[6].app.start = "18,64,87,22,72,4,69,59,59,37,20,20,59,19,37,34,62"
dtnsim.node[6].app.destinationEid = "47,116,351,104,321,9,120,330,129,26,96,9,223,44,320,40,227"
dtnsim.node[6].app.size = "100,500,500,50,100,500,200,100,500,100,500,500,100,500,500,500,100"
# Node 7 random traffic
dtnsim.node[7].app.enable = true
dtnsim.node[7].app.bundlesNumber = "6,4,9,15,23,20,17,1,3,2"
dtnsim.node[7].app.start = "30,63,48,91,57,1,41,95,75,23"
dtnsim.node[7].app.destinationEid = "252,260,132,56,10,125,275,104,67,250"
dtnsim.node[7].app.size = "500,50,500,200,500,50,50,100,500,200"
# Node 8 random traffic
dtnsim.node[8].app.enable = true
dtnsim.node[8].app.bundlesNumber = "10,12,24,15,17,2,7,12,1"
dtnsim.node[8].app.start = "74,71,4,2,80,41,35,2,21"
dtnsim.node[8].app.destinationEid = "275,290,67,247,113,124,126,207,53"
dtnsim.node[8].app.size = "100,50,500,50,200,100,50,100,500"
# Node 9 random traffic
dtnsim.node[9].app.enable = true
dtnsim.node[9].app.bundlesNumber = "5,9,9,23,20,7,20,2,5"
dtnsim.node[9].app.start = "38,9,74,94,48,56,12,89,10"
dtnsim.node[9].app.destinationEid = "220,261,81,357,342,175,240,91,57"
dtnsim.node[9].app.size = "50,100,500,50,50,50,200,200,500"
# Node 10 random traffic
dtnsim.node[10].app.enable = true
dtnsim.node[10].app.bundlesNumber = "16,22,12,9,22,3,12,2,2"
dtnsim.node[10].app.start = "92,27,22,10,21,93,22,90,96"
dtnsim.node[10].app.destinationEid = "79,339,269,315,111,210,359,23,61"
dtnsim.node[10].app.size = "50,100,50,200,200,200,50,50,200"
# Node 11 random traffic
dtnsim.node[11].app.enable = true
dtnsim.node[11].app.bundlesNumber = "14,16,13,7,5,20,2,6,12,1,3,1"
dtnsim.node[11].app.start = "8,40,28,30,79,27,46,75,51,55,79,99"
dtnsim.node[11].app.destinationEid = "308,313,86,45,123,295,350,342,117,312,247,318"
dtnsim.node[11].app.size = "500,200,500,100,50,100,500,50,100,100,200,50"
# Node 12 random traffic
dtnsim.node[12].app.enable = true
dtnsim.node[12].app.bundlesNumber = "22,6,23,23,14,7,4,1"
dtnsim.node[12].app.start = "16,67,39,9,84,71,87,3"
dtnsim.node[12].app.destinationEid = "136,92,203,351,162,307,275,78"
dtnsim.node[12].app.size = "200,500,100,100,200,500,100,500"
# Node 13 random traffic
dtnsim.node[13].app.enable = true
dtnsim.node[13].app.bundlesNumber = "2,12,15,25,23,15,7,1"
dtnsim.node[13].app.start = "22,30,48,31,84,44,82,47"
dtnsim.node[13].app.destinationEid = "19,108,28,225,106,83,107,190"
dtnsim.node[13].app.size = "100,100,200,200,500,200,100,50"
# Node 14 random traffic
dtnsim.node[14].app.enable = true
dtnsim.node[14].app.bundlesNumber = "15,24,1,17,18,2,4,9,1,7,2"
dtnsim.node[14].app.start = "90,56,12,65,39,56,64,13,69,4,25"
dtnsim.node[14].app.destinationEid = "115,40,162,349,18,118,36,212,6,223,287"
dtnsim.node[14].app.size = "100,100,500,500,500,200,500,500,500,50,100"
# Node 15 random traffic
dtnsim.node[15].app.enable = true
dtnsim.node[15].app.bundlesNumber = "7,22,9,9,7,22,21,1,1,1"
dtnsim.node[15].app.start = "64,5,6,10,85,60,27,79,46,32"
dtnsim.node[15].app.destinationEid = "289,143,62,143,119,353,117,197,64,133"
dtnsim.node[15].app.size = "100,100,50,200,500,500,200,200,200,200"
# Node 16 random traffic
dtnsim.node[16].app.enable = true
dtnsim.node[16].app.bundlesNumber = "22,4,18,1,20,1,18,1,13,1,1"
dtnsim.node[16].app.start = "92,74,12,61,62,86,43,35,11,75,44"
dtnsim.node[16].app.destinationEid = "273,340,105,170,32,263,72,274,117,355,144"
dtnsim.node[16].app.size = "100,50,100,50,100,100,200,100,200,50,500"
# Node 17 random traffic
dtnsim.node[17].app.enable = true
dtnsim.node[17].app.bundlesNumber = "22,10,17,3,12,20,15,1"
dtnsim.node[17].app.start = "54,84,85,62,53,29,82,9"
dtnsim.node[17].app.destinationEid = "89,102,197,247,224,177,217,46"
dtnsim.node[17].app.size = "50,100,200,500,200,500,100,200"
# Node 18 random traffic
dtnsim.node[18].app.enable = true
dtnsim.node[18].app.bundlesNumber = "17,3,2,3,15,3,3,1,7,18,2,6,16,3,1"
dtnsim.node[18].app.start = "88,72,85,95,86,46,4,97,5,97,33,26,79,56,19"
dtnsim.node[18].app.destinationEid = "152,332,98,286,161,259,146,133,257,90,66,146,327,246,254"
dtnsim.node[18].app.size = "50,200,100,50,100,200,500,200,200,500,100,50,200,50,500"
# Node 19 random traffic
dtnsim.node[19].app.enable = true
dtnsim.node[19].app.bundlesNumber = "10,19,8,11,8,9,17,14,4"
dtnsim.node[19].app.start = "92,97,29,12,49,26,82,17,32"
dtnsim.node[19].app.destinationEid = "326,312,68,248,37,322,205,250,109"
dtnsim.node[19].app.size = "200,100,100,200,500,50,100,50,200"
# Node 20 random traffic
dtnsim.node[20].app.enable = true
dtnsim.node[20].app.bundlesNumber = "22,15,9,16,3,20,3,3,1,8"
dtnsim.node[20].app.start = "76,78,1,59,45,37,60,25,32,69"
dtnsim.node[20].app.destinationEid = "293,341,317,261,107,206,214,197,328,343"
dtnsim.node[20].app.size = "100,200,100,100,100,200,100,50,50,100"
# Node 21 random traffic
dtnsim.node[21].app.enable = true
dtnsim.node[21].app.bundlesNumber = "17,24,20,1,19,4,2,3,4,3,1,2"
dtnsim.node[21].app.start = "89,86,8,91,57,54,13,89,88,43,47,34"
dtnsim.node[21].app.destinationEid = "108,305,310,292,32,165,35,144,229,360,48,106"
dtnsim.node[21].app.size = "500,200,200,100,500,500,500,200,200,500,100,500"
# Node 22 random traffic
dtnsim.node[22].app.enable = true
dtnsim.node[22].app.bundlesNumber = "11,24,3,1,7,24,20,2,7,1"
dtnsim.node[22].app.start = "97,60,27,31,56,7,96,48,82,18"
dtnsim.node[22].app.destinationEid = "140,278,248,161,142,197,87,208,323,342"
dtnsim.node[22].app.size = "100,100,200,500,500,50,100,200,50,100"
# Node 23 random traffic
dtnsim.node[23].app.enable = true
dtnsim.node[23].app.bundlesNumber = "12,8,22,6,20,19,11,2"
dtnsim.node[23].app.start = "80,20,77,99,19,84,59,64"
dtnsim.node[23].app.destinationEid = "79,313,54,242,195,197,26,119"
dtnsim.node[23].app.size = "100,100,50,500,200,50,100,100"
# Node 24 random traffic
dtnsim.node[24].app.enable = true
dtnsim.node[24].app.bundlesNumber = "6,22,4,16,15,5,19,5,8"
dtnsim.node[24].app.start = "37,84,95,16,57,21,100,14,30"
dtnsim.node[24].app.destinationEid = "354,33,84,192,165,85,249,214,277"
dtnsim.node[24].app.size = "100,200,100,50,100,100,100,200,500"
# Node 25 random traffic
dtnsim.node[25].app.enable = true
dtnsim.node[25].app.bundlesNumber = "1,22,22,11,2,24,3,2,2,2,2,5,1,1"
dtnsim.node[25].app.start = "56,51,7,58,89,18,21,2,23,46,11,37,23,62"
dtnsim.node[25].app.destinationEid = "351,347,30,185,200,136,76,360,164,94,333,60,29,234"
dtnsim.node[25].app.size = "200,200,100,200,500,50,50,50,500,200,200,200,100,100"
# Node 26 random traffic
dtnsim.node[26].app.enable = true
dtnsim.node[26].app.bundlesNumber = "8,10,11,21,9,7,10,13,2,4,3,2"
dtnsim.node[26].app.start = "69,100,87,40,66,81,50,34,81,2,80,3"
dtnsim.node[26].app.destinationEid = "2,313,25,67,268,324,192,92,69,122,167,217"
dtnsim.node[26].app.size = "500,50,50,200,100,200,50,500,100,200,500,500"
# Node 27 random traffic
dtnsim.node[27].app.enable = true
dtnsim.node[27].app.bundlesNumber = "1,2,14,15,23,2,24,19"
dtnsim.node[27].app.start = "45,56,64,97,38,36,11,44"
dtnsim.node[27].app.destinationEid = "98,106,336,226,196,57,268,111"
dtnsim.node[27].app.size = "200,200,200,500,100,100,200,200"
# Node 28 random traffic
dtnsim.node[28].app.enable = true
dtnsim.node[28].app.bundlesNumber = "23,13,16,14,19,6,3,4,2"
dtnsim.node[28].app.start = "33,91,75,97,74,40,31,11,97"
dtnsim.node[28].app.destinationEid = "19,134,157,265,288,191,140,133,194"
dtnsim.node[28].app.size = "200,100,50,500,100,100,500,50,500"
# Node 29 random traffic
dtnsim.node[29].app.enable = true
dtnsim.node[29].app.bundlesNumber = "9,13,1,1,15,8,4,10,3,6,10,2,3,15"
dtnsim.node[29].app.start = "71,84,61,64,34,7,7,22,71,9,93,13,70,7"
dtnsim.node[29].app.destinationEid = "101,140,276,214,161,47,175,96,4,126,37,324,168,182"
dtnsim.node[29].app.size = "500,50,100,500,50,100,500,500,50,500,100,50,200,500"
# Node 30 random traffic
dtnsim.node[30].app.enable = true
dtnsim.node[30].app.bundlesNumber = "22,19,13,15,7,2,11,2,9"
dtnsim.node[30].app.start = "23,56,47,62,100,48,63,2,87"
dtnsim.node[30].app.destinationEid = "309,308,66,160,43,169,144,250,276"
dtnsim.node[30].app.size = "200,500,100,200,50,100,500,100,200"
# Node 31 random traffic
dtnsim.node[31].app.enable = true
dtnsim.node[31].app.bundlesNumber = "2,18,8,3,6,9,22,6,8,14,1,3"
dtnsim.node[31].app.start = "14,61,75,88,1,59,3,51,74,94,18,92"
dtnsim.node[31].app.destinationEid = "307,30,8,164,13,156,140,37,259,262,125,122"
dtnsim.node[31].app.size = "200,500,500,100,100,500,500,50,200,200,200,200"
# Node 32 random traffic
dtnsim.node[32].app.enable = true
dtnsim.node[32].app.bundlesNumber = "8,16,2,9,18,9,21,15,2"
dtnsim.node[32].app.start = "44,69,59,44,26,94,93,86,80"
dtnsim.node[32].app.destinationEid = "243,262,297,76,175,64,353,192,272"
dtnsim.node[32].app.size = "50,100,50,500,50,200,50,50,500"
# Node 33 random traffic
dtnsim.node[33].app.enable = true
dtnsim.node[33].app.bundlesNumber = "22,2,1,16,9,14,14,22"
dtnsim.node[33].app.start = "81,99,33,80,45,18,18,54"
dtnsim.node[33].app.destinationEid = "275,66,290,53,158,97,325,156"
dtnsim.node[33].app.size = "100,100,100,100,100,500,100,200"
# Node 34 random traffic
dtnsim.node[34].app.enable = true
dtnsim.node[34].app.bundlesNumber = "12,22,21,11,19,3,3,5,2,1,1"
dtnsim.node[34].app.start = "99,2,8,95,96,70,29,10,46,95,47"
dtnsim.node[34].app.destinationEid = "110,275,29,190,68,175,327,2,206,295,123"
dtnsim.node[34].app.size = "50,500,500,50,200,100,50,50,100,500,100"
# Node 35 random traffic
dtnsim.node[35].app.enable = true
dtnsim.node[35].app.bundlesNumber = "18,2,22,23,4,13,6,6,5,1"
dtnsim.node[35].app.start = "58,42,97,16,3,44,7,91,79,69"
dtnsim.node[35].app.destinationEid = "40,255,147,142,142,14,282,330,251,133"
dtnsim.node[35].app.size = "100,100,200,200,200,200,100,500,200,50"
# Node 36 random traffic
dtnsim.node[36].app.enable = true
dtnsim.node[36].app.bundlesNumber = "18,11,12,12,23,18,1,5"
dtnsim.node[36].app.start = "96,30,31,3,98,67,50,10"
dtnsim.node[36].app.destinationEid = "286,344,77,208,69,182,329,23"
dtnsim.node[36].app.size = "200,200,200,50,100,100,500,100"
# Node 37 random traffic
dtnsim.node[37].app.enable = true
dtnsim.node[37].app.bundlesNumber = "8,20,7,4,23,19,2,13,2,1,1"
dtnsim.node[37].app.start = "25,37,94,13,18,88,2,60,86,3,49"
dtnsim.node[37].app.destinationEid = "168,232,97,310,281,125,185,259,62,166,355"
dtnsim.node[37].app.size = "50,50,200,50,500,500,500,100,200,50,200"
# Node 38 random traffic
dtnsim.node[38].app.enable = true
dtnsim.node[38].app.bundlesNumber = "9,22,13,24,19,5,5,2,1"
dtnsim.node[38].app.start = "68,51,18,52,59,35,5,8,55"
dtnsim.node[38].app.destinationEid = "141,72,352,155,237,13,96,323,167"
dtnsim.node[38].app.size = "500,200,200,500,50,200,500,500,100"
# Node 39 random traffic
dtnsim.node[39].app.enable = true
dtnsim.node[39].app.bundlesNumber = "9,12,15,22,10,5,17,4,3,1,1,1"
dtnsim.node[39].app.start = "98,42,52,4,16,22,88,40,30,79,33,76"
dtnsim.node[39].app.destinationEid = "303,164,327,268,279,219,252,170,251,178,106,129"
dtnsim.node[39].app.size = "50,50,50,100,50,500,100,100,100,500,100,50"
# Node 40 random traffic
dtnsim.node[40].app.enable = true
dtnsim.node[40].app.bundlesNumber = "7,4,9,20,24,25,10,1"
dtnsim.node[40].app.start = "7,53,6,21,51,16,32,48"
dtnsim.node[40].app.destinationEid = "231,225,312,45,161,47,226,171"
dtnsim.node[40].app.size = "200,200,100,500,500,50,50,50"
# Node 41 random traffic
dtnsim.node[41].app.enable = true
dtnsim.node[41].app.bundlesNumber = "20,17,6,15,13,1,23,3,1,1"
dtnsim.node[41].app.start = "59,86,10,46,19,11,52,72,99,95"
dtnsim.node[41].app.destinationEid = "168,177,91,206,107,288,225,180,216,335"
dtnsim.node[41].app.size = "200,200,200,200,500,500,500,100,100,200"
# Node 42 random traffic
dtnsim.node[42].app.enable = true
dtnsim.node[42].app.bundlesNumber = "7,9,7,14,14,1,4,1,1,20,21,1"
dtnsim.node[42].app.start = "8,73,22,81,37,42,37,45,98,6,25,10"
dtnsim.node[42].app.destinationEid = "188,151,203,267,297,140,70,37,326,144,61,57"
dtnsim.node[42].app.size = "100,50,50,50,50,200,500,50,50,500,500,200"
# Node 43 random traffic
dtnsim.node[43].app.enable = true
dtnsim.node[43].app.bundlesNumber = "21,22,8,12,17,18,2"
dtnsim.node[43].app.start = "61,47,34,47,80,86,55"
dtnsim.node[43].app.destinationEid = "130,257,177,181,128,260,247"
dtnsim.node[43].app.size = "500,50,100,100,50,500,50"
# Node 44 random traffic
dtnsim.node[44].app.enable = true
dtnsim.node[44].app.bundlesNumber = "8,1,8,23,20,3,4,2,5,22,2,2"
dtnsim.node[44].app.start = "47,8,46,43,56,41,12,88,83,7,54,79"
dtnsim.node[44].app.destinationEid = "70,180,133,253,38,1,260,213,216,193,302,260"
dtnsim.node[44].app.size = "200,100,50,100,500,50,100,50,200,100,100,200"
# Node 45 random traffic
dtnsim.node[45].app.enable = true
dtnsim.node[45].app.bundlesNumber = "25,10,6,6,6,22,23,1,1"
dtnsim.node[45].app.start = "11,58,9,80,53,77,49,35,24"
dtnsim.node[45].app.destinationEid = "343,68,288,233,245,63,259,205,287"
dtnsim.node[45].app.size = "200,50,50,50,500,50,200,200,100"
# Node 46 random traffic
dtnsim.node[46].app.enable = true
dtnsim.node[46].app.bundlesNumber = "17,19,1,8,11,15,25,2,1,1"
dtnsim.node[46].app.start = "57,84,82,82,73,18,1,31,43,98"
dtnsim.node[46].app.destinationEid = "351,96,311,166,64,229,85,59,12,151"
dtnsim.node[46].app.size = "50,100,500,500,200,100,100,500,100,200"
# Node 47 random traffic
dtnsim.node[47].app.enable = true
dtnsim.node[47].app.bundlesNumber = "13,2,25,8,1,19,12,4,1,5,5,2,2,1"
dtnsim.node[47].app.start = "89,56,37,71,31,12,64,83,17,40,70,29,63,31"
dtnsim.node[47].app.destinationEid = "297,174,118,89,169,194,146,19,300,166,28,354,214,67"
dtnsim.node[47].app.size = "50,50,50,200,100,100,500,500,50,200,200,100,200,100"
# Node 48 random traffic
dtnsim.node[48].app.enable = true
dtnsim.node[48].app.bundlesNumber = "14,10,12,11,18,3,10,14,5,3"
dtnsim.node[48].app.start = "45,94,90,21,62,67,25,22,20,63"
dtnsim.node[48].app.destinationEid = "352,166,192,168,298,111,185,274,25,137"
dtnsim.node[48].app.size = "50,100,100,50,50,100,100,500,200,100"
# Node 49 random traffic
dtnsim.node[49].app.enable = true
dtnsim.node[49].app.bundlesNumber = "17,10,1,19,9,1,8,5,18,5,5,2"
dtnsim.node[49].app.start = "80,12,52,39,88,92,51,20,33,7,45,16"
dtnsim.node[49].app.destinationEid = "63,8,39,274,281,111,78,226,305,16,286,320"
dtnsim.node[49].app.size = "500,200,100,500,50,500,50,200,200,100,50,50"
# Node 50 random traffic
dtnsim.node[50].app.enable = true
dtnsim.node[50].app.bundlesNumber = "8,1,25,21,19,5,21"
dtnsim.node[50].app.start = "72,8,45,86,6,39,92"
dtnsim.node[50].app.destinationEid = "238,295,233,332,262,55,199"
dtnsim.node[50].app.size = "100,500,100,200,100,200,100"
# Node 51 random traffic
dtnsim.node[51].app.enable = true
dtnsim.node[51].app.bundlesNumber = "18,7,3,21,19,4,4,16,5,3"
dtnsim.node[51].app.start = "63,46,87,82,80,50,34,79,58,54"
dtnsim.node[51].app.destinationEid = "135,224,161,186,222,277,149,305,124,251"
dtnsim.node[51].app.size = "500,200,100,200,50,500,500,50,500,500"
# Node 52 random traffic
dtnsim.node[52].app.enable = true
dtnsim.node[52].app.bundlesNumber = "2,22,10,25,22,4,4,2,3,3,1,1,1"
dtnsim.node[52].app.start = "63,65,90,14,58,20,51,47,76,23,10,42,82"
dtnsim.node[52].app.destinationEid = "98,336,149,173,141,205,265,15,345,127,182,41,177"
dtnsim.node[52].app.size = "500,50,50,500,100,100,100,50,500,500,200,50,50"
# Node 53 random traffic
dtnsim.node[53].app.enable = true
dtnsim.node[53].app.bundlesNumber = "14,20,3,18,14,11,6,4,6,4"
dtnsim.node[53].app.start = "27,47,49,41,26,19,50,77,91,90"
dtnsim.node[53].app.destinationEid = "201,129,239,319,59,190,348,129,106,178"
dtnsim.node[53].app.size = "200,200,50,200,500,50,200,500,200,200"
# Node 54 random traffic
dtnsim.node[54].app.enable = true
dtnsim.node[54].app.bundlesNumber = "21,6,24,7,15,12,14,1"
dtnsim.node[54].app.start = "49,68,7,100,39,88,35,27"
dtnsim.node[54].app.destinationEid = "205,324,301,109,159,177,74,20"
dtnsim.node[54].app.size = "500,500,100,100,500,100,200,200"
# Node 55 random traffic
dtnsim.node[55].app.enable = true
dtnsim.node[55].app.bundlesNumber = "4,15,21,9,16,15,12,1,4,2,1"
dtnsim.node[55].app.start = "55,39,4,16,54,33,34,46,87,26,92"
dtnsim.node[55].app.destinationEid = "155,129,158,211,275,286,180,296,140,74,247"
dtnsim.node[55].app.size = "50,100,100,500,50,200,200,100,500,100,100"
# Node 56 random traffic
dtnsim.node[56].app.enable = true
dtnsim.node[56].app.bundlesNumber = "18,4,15,22,3,12,24,1,1"
dtnsim.node[56].app.start = "77,37,40,58,98,64,20,74,100"
dtnsim.node[56].app.destinationEid = "152,210,20,104,95,53,181,128,213"
dtnsim.node[56].app.size = "500,100,500,500,50,100,50,500,100"
# Node 57 random traffic
dtnsim.node[57].app.enable = true
dtnsim.node[57].app.bundlesNumber = "3,8,24,22,13,17,2,3,7,1"
dtnsim.node[57].app.start = "48,50,100,67,39,46,92,44,66,1"
dtnsim.node[57].app.destinationEid = "228,31,254,251,178,23,44,113,347,346"
dtnsim.node[57].app.size = "200,50,50,200,200,200,500,500,100,200"
# Node 58 random traffic
dtnsim.node[58].app.enable = true
dtnsim.node[58].app.bundlesNumber = "17,12,8,19,8,23,3,2,4,3,1"
dtnsim.node[58].app.start = "34,89,93,97,46,35,20,26,14,6,51"
dtnsim.node[58].app.destinationEid = "178,100,302,94,237,145,26,43,69,222,180"
dtnsim.node[58].app.size = "500,100,100,100,50,200,500,500,100,100,200"
# Node 59 random traffic
dtnsim.node[59].app.enable = true
dtnsim.node[59].app.bundlesNumber = "2,10,11,8,24,2,9,9,11,2,9,3"
dtnsim.node[59].app.start = "66,92,36,24,99,79,99,9,23,3,12,23"
dtnsim.node[59].app.destinationEid = "244,88,202,39,138,240,323,286,103,326,199,339"
dtnsim.node[59].app.size = "200,500,200,50,200,500,100,50,100,200,100,100"
# Node 60 random traffic
dtnsim.node[60].app.enable = true
dtnsim.node[60].app.bundlesNumber = "19,21,17,14,13,14,2"
dtnsim.node[60].app.start = "68,64,88,3,82,73,2"
dtnsim.node[60].app.destinationEid = "97,26,166,120,11,219,37"
dtnsim.node[60].app.size = "200,50,200,50,200,500,50"
# Node 61 random traffic
dtnsim.node[61].app.enable = true
dtnsim.node[61].app.bundlesNumber = "6,1,17,11,2,22,17,21,3"
dtnsim.node[61].app.start = "17,79,30,89,38,16,23,29,43"
dtnsim.node[61].app.destinationEid = "315,42,71,66,335,195,34,355,32"
dtnsim.node[61].app.size = "50,50,100,50,500,50,50,50,200"
# Node 62 random traffic
dtnsim.node[62].app.enable = true
dtnsim.node[62].app.bundlesNumber = "12,18,6,16,17,6,6,6,7,1,3,1,1"
dtnsim.node[62].app.start = "18,26,92,8,95,74,85,96,3,42,55,95,22"
dtnsim.node[62].app.destinationEid = "276,225,320,310,80,166,64,347,222,75,77,152,98"
dtnsim.node[62].app.size = "500,500,50,200,200,500,100,200,200,50,500,500,100"
# Node 63 random traffic
dtnsim.node[63].app.enable = true
dtnsim.node[63].app.bundlesNumber = "24,2,23,8,14,12,17"
dtnsim.node[63].app.start = "7,65,38,49,81,40,39"
dtnsim.node[63].app.destinationEid = "161,60,87,91,129,323,28"
dtnsim.node[63].app.size = "50,100,50,500,500,50,50"
# Node 64 random traffic
dtnsim.node[64].app.enable = true
dtnsim.node[64].app.bundlesNumber = "2,25,12,19,2,16,22,1,1"
dtnsim.node[64].app.start = "19,73,46,5,63,43,12,54,19"
dtnsim.node[64].app.destinationEid = "316,317,308,279,164,269,36,171,347"
dtnsim.node[64].app.size = "100,200,500,200,500,100,100,100,200"
# Node 65 random traffic
dtnsim.node[65].app.enable = true
dtnsim.node[65].app.bundlesNumber = "15,6,2,8,5,5,12,6,10,24,7"
dtnsim.node[65].app.start = "82,25,21,21,85,90,58,56,47,1,56"
dtnsim.node[65].app.destinationEid = "3,113,271,64,330,323,193,344,74,93,157"
dtnsim.node[65].app.size = "50,200,50,500,200,500,500,50,200,100,500"
# Node 66 random traffic
dtnsim.node[66].app.enable = true
dtnsim.node[66].app.bundlesNumber = "11,23,3,19,10,11,19,2,2"
dtnsim.node[66].app.start = "10,61,36,97,99,76,65,97,67"
dtnsim.node[66].app.destinationEid = "153,5,246,307,329,182,186,141,47"
dtnsim.node[66].app.size = "50,100,50,500,200,50,500,50,500"
# Node 67 random traffic
dtnsim.node[67].app.enable = true
dtnsim.node[67].app.bundlesNumber = "20,14,23,16,2,24,1"
dtnsim.node[67].app.start = "27,15,62,10,60,42,8"
dtnsim.node[67].app.destinationEid = "124,282,149,312,275,132,97"
dtnsim.node[67].app.size = "100,500,50,200,50,200,100"
# Node 68 random traffic
dtnsim.node[68].app.enable = true
dtnsim.node[68].app.bundlesNumber = "13,15,6,6,22,21,1,9,5,2"
dtnsim.node[68].app.start = "45,22,50,89,37,94,12,46,64,45"
dtnsim.node[68].app.destinationEid = "146,285,106,17,271,75,222,336,270,67"
dtnsim.node[68].app.size = "100,200,100,500,500,200,100,50,500,50"
# Node 69 random traffic
dtnsim.node[69].app.enable = true
dtnsim.node[69].app.bundlesNumber = "5,23,16,8,6,18,11,4,6,1,1,1"
dtnsim.node[69].app.start = "61,28,55,79,74,11,64,84,84,96,63,16"
dtnsim.node[69].app.destinationEid = "29,320,258,124,113,170,316,317,35,290,321,235"
dtnsim.node[69].app.size = "200,100,100,500,50,100,50,50,200,500,50,100"
# Node 70 random traffic
dtnsim.node[70].app.enable = true
dtnsim.node[70].app.bundlesNumber = "4,22,12,11,10,14,7,2,5,5,5,3"
dtnsim.node[70].app.start = "43,86,47,62,23,82,82,19,46,13,59,88"
dtnsim.node[70].app.destinationEid = "162,49,31,347,118,35,250,306,239,94,20,59"
dtnsim.node[70].app.size = "200,50,200,50,200,100,50,500,200,200,100,50"
# Node 71 random traffic
dtnsim.node[71].app.enable = true
dtnsim.node[71].app.bundlesNumber = "18,16,9,9,6,22,10,2,8"
dtnsim.node[71].app.start = "31,16,54,60,86,82,84,84,91"
dtnsim.node[71].app.destinationEid = "310,129,161,173,269,194,286,210,293"
dtnsim.node[71].app.size = "200,500,50,200,200,500,500,500,200"
# Node 72 random traffic
dtnsim.node[72].app.enable = true
dtnsim.node[72].app.bundlesNumber = "14,18,24,9,9,17,8,1"
dtnsim.node[72].app.start = "6,43,2,52,49,71,49,61"
dtnsim.node[72].app.destinationEid = "1,45,79,233,111,157,306,203"
dtnsim.node[72].app.size = "100,500,200,200,100,500,50,50"
# Node 73 random traffic
dtnsim.node[73].app.enable = true
dtnsim.node[73].app.bundlesNumber = "17,6,9,5,24,15,10,5,5,2,1,1"
dtnsim.node[73].app.start = "62,80,33,96,69,96,58,80,57,66,43,61"
dtnsim.node[73].app.destinationEid = "92,38,133,328,68,186,71,239,166,338,348,275"
dtnsim.node[73].app.size = "50,200,50,50,100,50,500,500,200,500,200,500"
# Node 74 random traffic
dtnsim.node[74].app.enable = true
dtnsim.node[74].app.bundlesNumber = "8,6,7,9,3,5,13,11,15,1,13,2,1,5,1"
dtnsim.node[74].app.start = "30,51,63,60,68,66,10,20,56,73,88,83,5,53,68"
dtnsim.node[74].app.destinationEid = "172,254,123,192,84,281,26,195,244,243,51,85,8,51,224"
dtnsim.node[74].app.size = "500,500,100,200,200,200,500,100,500,500,200,50,50,200,100"
# Node 75 random traffic
dtnsim.node[75].app.enable = true
dtnsim.node[75].app.bundlesNumber = "23,3,15,13,9,2,14,11,2,5,1,2"
dtnsim.node[75].app.start = "71,56,21,73,32,88,65,47,1,71,74,51"
dtnsim.node[75].app.destinationEid = "348,78,357,177,218,245,258,106,285,125,3,298"
dtnsim.node[75].app.size = "500,500,100,100,500,500,50,500,200,50,500,50"
# Node 76 random traffic
dtnsim.node[76].app.enable = true
dtnsim.node[76].app.bundlesNumber = "18,11,9,4,6,2,25,8,12,3,2"
dtnsim.node[76].app.start = "3,68,21,13,86,31,15,16,58,88,38"
dtnsim.node[76].app.destinationEid = "140,104,47,306,183,337,97,206,287,199,306"
dtnsim.node[76].app.size = "500,200,500,50,200,500,100,100,500,100,100"
# Node 77 random traffic
dtnsim.node[77].app.enable = true
dtnsim.node[77].app.bundlesNumber = "12,14,8,25,8,3,16,14"
dtnsim.node[77].app.start = "15,76,79,13,57,77,88,81"
dtnsim.node[77].app.destinationEid = "131,209,313,49,291,141,140,66"
dtnsim.node[77].app.size = "50,50,500,200,50,500,200,100"
# Node 78 random traffic
dtnsim.node[78].app.enable = true
dtnsim.node[78].app.bundlesNumber = "12,6,23,21,4,18,16"
dtnsim.node[78].app.start = "6,67,44,15,64,59,44"
dtnsim.node[78].app.destinationEid = "212,115,163,284,311,255,43"
dtnsim.node[78].app.size = "200,50,500,500,50,500,50"
# Node 79 random traffic
dtnsim.node[79].app.enable = true
dtnsim.node[79].app.bundlesNumber = "7,16,23,13,25,6,8,1,1"
dtnsim.node[79].app.start = "79,57,43,33,7,63,31,13,100"
dtnsim.node[79].app.destinationEid = "199,227,330,335,32,16,243,152,239"
dtnsim.node[79].app.size = "50,50,50,100,500,500,200,100,100"
# Node 80 random traffic
dtnsim.node[80].app.enable = true
dtnsim.node[80].app.bundlesNumber = "20,17,12,22,9,10,4,2,3,1"
dtnsim.node[80].app.start = "48,17,99,25,19,18,68,40,2,2"
dtnsim.node[80].app.destinationEid = "160,312,179,16,255,331,222,219,86,276"
dtnsim.node[80].app.size = "200,500,200,200,500,500,500,500,200,200"
# Node 81 random traffic
dtnsim.node[81].app.enable = true
dtnsim.node[81].app.bundlesNumber = "11,14,12,8,14,9,22,2,4,2,1,1"
dtnsim.node[81].app.start = "12,65,97,39,41,6,16,42,44,1,44,51"
dtnsim.node[81].app.destinationEid = "291,14,144,124,40,218,36,87,352,206,341,104"
dtnsim.node[81].app.size = "200,50,200,200,100,50,200,500,100,50,200,500"
# Node 82 random traffic
dtnsim.node[82].app.enable = true
dtnsim.node[82].app.bundlesNumber = "19,25,3,16,16,17,3,1"
dtnsim.node[82].app.start = "62,39,85,50,41,70,86,21"
dtnsim.node[82].app.destinationEid = "99,4,342,236,37,254,229,234"
dtnsim.node[82].app.size = "200,500,200,50,500,50,500,100"
# Node 83 random traffic
dtnsim.node[83].app.enable = true
dtnsim.node[83].app.bundlesNumber = "19,24,25,15,16,1"
dtnsim.node[83].app.start = "40,65,1,96,75,20"
dtnsim.node[83].app.destinationEid = "219,321,200,34,80,319"
dtnsim.node[83].app.size = "50,100,500,200,500,100"
# Node 84 random traffic
dtnsim.node[84].app.enable = true
dtnsim.node[84].app.bundlesNumber = "22,6,9,12,21,19,8,3"
dtnsim.node[84].app.start = "64,96,35,17,70,14,54,37"
dtnsim.node[84].app.destinationEid = "172,6,167,240,73,270,212,257"
dtnsim.node[84].app.size = "500,200,50,500,200,100,50,50"
# Node 85 random traffic
dtnsim.node[85].app.enable = true
dtnsim.node[85].app.bundlesNumber = "9,12,14,5,1,11,5,16,19,8"
dtnsim.node[85].app.start = "98,51,41,17,80,27,53,74,10,56"
dtnsim.node[85].app.destinationEid = "114,264,6,45,231,125,113,307,330,202"
dtnsim.node[85].app.size = "100,500,200,100,500,500,200,500,200,200"
# Node 86 random traffic
dtnsim.node[86].app.enable = true
dtnsim.node[86].app.bundlesNumber = "12,18,11,20,1,9,6,2,7,10,2,1,1"
dtnsim.node[86].app.start = "91,64,72,89,34,26,20,47,7,55,34,49,45"
dtnsim.node[86].app.destinationEid = "39,189,282,174,38,324,58,81,258,298,316,165,307"
dtnsim.node[86].app.size = "200,500,100,500,200,100,500,50,200,100,500,50,50"
# Node 87 random traffic
dtnsim.node[87].app.enable = true
dtnsim.node[87].app.bundlesNumber = "4,7,13,11,18,5,13,23,3,3"
dtnsim.node[87].app.start = "62,56,37,25,92,62,90,84,85,82"
dtnsim.node[87].app.destinationEid = "57,121,238,277,176,336,42,100,236,246"
dtnsim.node[87].app.size = "200,200,50,50,500,200,500,50,200,100"
# Node 88 random traffic
dtnsim.node[88].app.enable = true
dtnsim.node[88].app.bundlesNumber = "20,15,17,18,13,16,1"
dtnsim.node[88].app.start = "54,32,89,58,79,100,50"
dtnsim.node[88].app.destinationEid = "51,53,209,297,248,280,227"
dtnsim.node[88].app.size = "200,50,200,100,200,100,500"
# Node 89 random traffic
dtnsim.node[89].app.enable = true
dtnsim.node[89].app.bundlesNumber = "21,11,6,23,8,23,8"
dtnsim.node[89].app.start = "83,56,90,51,52,28,46"
dtnsim.node[89].app.destinationEid = "31,103,205,163,283,113,264"
dtnsim.node[89].app.size = "50,200,500,100,500,200,200"
# Node 90 random traffic
dtnsim.node[90].app.enable = true
dtnsim.node[90].app.bundlesNumber = "20,11,1,23,21,8,10,5,1"
dtnsim.node[90].app.start = "12,51,51,70,43,44,87,46,74"
dtnsim.node[90].app.destinationEid = "100,95,289,163,106,5,56,120,309"
dtnsim.node[90].app.size = "50,50,100,50,50,500,500,200,200"
# Node 91 random traffic
dtnsim.node[91].app.enable = true