[General]
network = src.dtnsim										
repeat = 1
allow-object-stealing-on-deletion = true

# Simulation end time
sim-time-limit = 84600s

# Nodes quantity (identifiers (EiDs) matches their index, EiD=0 is ignored)			
dtnsim.nodesNumber = 120
dtnsim.node[*].icon = "satellite"

# Nodes's failure rates
dtnsim.node[*].fault.enable = false
dtnsim.node[*].fault.meanTTF = 0s
dtnsim.node[*].fault.meanTTR = 0s

dtnsim.node[*].dtn.routing = "cgrModel350"
dtnsim.node[*].dtn.printRoutingDebug = true

# --- Random Traffic Configuration ---
# Node 1 random traffic
dtnsim.node[1].app.enable = true
dtnsim.node[1].app.bundlesNumber = "14,4,6,20,9,17,21,1,3,4,1"
dtnsim.node[1].app.start = "1,11,62,40,16,16,51,24,47,92,55"
dtnsim.node[1].app.destinationEid = "61,47,68,73,15,5,103,61,41,95,90"
dtnsim.node[1].app.size = "200,100,200,200,100,100,200,200,100,500,500"
# Node 2 random traffic
dtnsim.node[2].app.enable = true
dtnsim.node[2].app.bundlesNumber = "4,16,23,25,8,23,1"
dtnsim.node[2].app.start = "21,50,59,87,57,94,47"
dtnsim.node[2].app.destinationEid = "102,116,65,62,90,67,40"
dtnsim.node[2].app.size = "50,200,100,50,50,200,100"
# Node 3 random traffic
dtnsim.node[3].app.enable = true
dtnsim.node[3].app.bundlesNumber = "8,6,17,25,3,19,15,6,1"
dtnsim.node[3].app.start = "11,79,25,44,73,44,33,100,84"
dtnsim.node[3].app.destinationEid = "102,31,72,7,10,51,106,99,12"
dtnsim.node[3].app.size = "500,500,50,200,500,100,100,100,100"
# Node 4 random traffic
dtnsim.node[4].app.enable = true
dtnsim.node[4].app.bundlesNumber = "1,23,9,11,10,22,9,11,4"
dtnsim.node[4].app.start = "32,16,39,61,63,78,83,51,23"
dtnsim.node[4].app.destinationEid = "65,110,110,1,1,84,108,115,21"
dtnsim.node[4].app.size = "500,100,500,50,200,100,100,100,500"
# Node 5 random traffic
dtnsim.node[5].app.enable = true
dtnsim.node[5].app.bundlesNumber = "8,8,4,6,3,11,23,20,4,1,4,2,3,1,1,1"
dtnsim.node[5].app.start = "76,65,42,36,8,34,68,60,37,25,66,6,7,59,34,90"
dtnsim.node[5].app.destinationEid = "52,100,34,110,118,14,26,106,43,118,8,75,12,44,93,24"
dtnsim.node[5].app.size = "100,50,200,200,100,100,200,500,500,50,200,100,50,500,500,500"
# Node 6 random traffic
dtnsim.node[6].app.enable = true
dtnsim.node[6].app.bundlesNumber = "20,17,17,19,9,5,9,1,3"
dtnsim.node[6].app.start = "36,3,94,8,34,27,55,60,97"
dtnsim.node[6].app.destinationEid = "47,119,81,23,85,111,35,89,69"
dtnsim.node[6].app.size = "500,200,50,200,100,500,100,200,200"
# Node 7 random traffic
dtnsim.node[7].app.enable = true
dtnsim.node[7].app.bundlesNumber = "15,5,16,1,7,5,24,7,11,7,1,1"
dtnsim.node[7].app.start = "58,21,13,20,48,78,45,52,59,81,14,98"
dtnsim.node[7].app.destinationEid = "31,100,65,120,96,18,35,15,18,25,83,67"
dtnsim.node[7].app.size = "100,500,50,50,500,100,200,100,50,500,200,100"
# Node 8 random traffic
dtnsim.node[8].app.enable = true
dtnsim.node[8].app.bundlesNumber = "1,6,19,16,20,21,14,1,1,1"
dtnsim.node[8].app.start = "92,63,2,96,18,86,46,62,41,69"
dtnsim.node[8].app.destinationEid = "116,10,53,105,34,68,66,61,111,35"
dtnsim.node[8].app.size = "500,100,50,500,200,100,500,100,50,50"
# Node 9 random traffic
dtnsim.node[9].app.enable = true
dtnsim.node[9].app.bundlesNumber = "16,10,16,14,12,3,14,12,1,1,1"
dtnsim.node[9].app.start = "47,22,29,95,16,27,64,76,94,25,36"
dtnsim.node[9].app.destinationEid = "20,79,73,78,102,92,83,100,66,70,46"
dtnsim.node[9].app.size = "50,50,100,200,50,50,500,500,200,50,50"
# Node 10 random traffic
dtnsim.node[10].app.enable = true
dtnsim.node[10].app.bundlesNumber = "13,11,13,22,21,3,15,2"
dtnsim.node[10].app.start = "99,42,23,55,13,85,93,26"
dtnsim.node[10].app.destinationEid = "116,102,93,100,94,69,70,65"
dtnsim.node[10].app.size = "100,500,50,50,200,50,500,500"
# Node 11 random traffic
dtnsim.node[11].app.enable = true
dtnsim.node[11].app.bundlesNumber = "13,19,24,10,25,7,2"
dtnsim.node[11].app.start = "42,34,19,47,70,50,2"
dtnsim.node[11].app.destinationEid = "107,16,76,28,106,40,99"
dtnsim.node[11].app.size = "50,100,100,200,500,100,500"
# Node 12 random traffic
dtnsim.node[12].app.enable = true
dtnsim.node[12].app.bundlesNumber = "21,13,13,2,12,14,14,9,1,1"
dtnsim.node[12].app.start = "19,88,39,54,53,3,93,59,51,45"
dtnsim.node[12].app.destinationEid = "22,70,7,44,51,42,14,7,25,105"
dtnsim.node[12].app.size = "100,500,500,50,200,100,500,500,100,50"
# Node 13 random traffic
dtnsim.node[13].app.enable = true
dtnsim.node[13].app.bundlesNumber = "14,24,14,10,18,2,17,1"
dtnsim.node[13].app.start = "64,80,42,73,45,79,81,28"
dtnsim.node[13].app.destinationEid = "62,101,28,71,64,48,70,79"
dtnsim.node[13].app.size = "100,100,100,500,500,50,200,50"
# Node 14 random traffic
dtnsim.node[14].app.enable = true
dtnsim.node[14].app.bundlesNumber = "2,14,2,9,23,11,8,5,11,8,3,1,2,1"
dtnsim.node[14].app.start = "50,70,92,61,84,11,70,34,19,32,40,97,74,40"
dtnsim.node[14].app.destinationEid = "78,83,50,75,114,27,36,15,102,3,91,54,33,54"
dtnsim.node[14].app.size = "500,200,500,100,200,500,500,200,200,100,50,200,200,100"
# Node 15 random traffic
dtnsim.node[15].app.enable = true
dtnsim.node[15].app.bundlesNumber = "19,13,7,4,16,16,2,14,9"
dtnsim.node[15].app.start = "76,8,36,59,18,32,83,27,10"
dtnsim.node[15].app.destinationEid = "94,66,9,50,52,67,47,11,115"
dtnsim.node[15].app.size = "500,200,50,500,200,500,100,200,50"
# Node 16 random traffic
dtnsim.node[16].app.enable = true
dtnsim.node[16].app.bundlesNumber = "23,5,10,9,10,9,21,12,1"
dtnsim.node[16].app.start = "52,65,66,95,89,96,53,42,67"
dtnsim.node[16].app.destinationEid = "76,39,28,37,111,29,105,120,82"
dtnsim.node[16].app.size = "100,500,500,200,50,100,100,50,100"
# Node 17 random traffic
dtnsim.node[17].app.enable = true
dtnsim.node[17].app.bundlesNumber = "13,3,15,9,1,5,11,8,19,2,7,5,2"
dtnsim.node[17].app.start = "89,67,13,57,72,74,66,52,66,73,50,72,25"
dtnsim.node[17].app.destinationEid = "50,114,91,60,7,33,23,78,50,100,110,4,67"
dtnsim.node[17].app.size = "200,100,100,100,100,50,200,100,500,200,200,100,50"
# Node 18 random traffic
dtnsim.node[18].app.enable = true
dtnsim.node[18].app.bundlesNumber = "6,8,5,16,15,20,23,3,2,1,1"
dtnsim.node[18].app.start = "62,10,88,100,20,15,79,5,82,14,85"
dtnsim.node[18].app.destinationEid = "101,87,119,59,86,69,111,90,80,43,50"
dtnsim.node[18].app.size = "50,500,100,50,500,500,500,100,50,500,50"
# Node 19 random traffic
dtnsim.node[19].app.enable = true
dtnsim.node[19].app.bundlesNumber = "18,2,8,8,22,9,3,10,11,8,1"
dtnsim.node[19].app.start = "80,93,89,38,48,79,87,58,49,85,9"
dtnsim.node[19].app.destinationEid = "108,49,94,118,40,42,43,45,15,119,42"
dtnsim.node[19].app.size = "50,100,50,200,500,200,500,100,100,50,200"
# Node 20 random traffic
dtnsim.node[20].app.enable = true
dtnsim.node[20].app.bundlesNumber = "6,20,4,22,9,4,12,18,2,1,2"
dtnsim.node[20].app.start = "79,85,64,21,91,26,98,48,24,27,97"
dtnsim.node[20].app.destinationEid = "53,9,65,19,65,29,65,39,117,46,68"
dtnsim.node[20].app.size = "50,200,500,500,100,500,50,500,50,200,50"
# Node 21 random traffic
dtnsim.node[21].app.enable = true
dtnsim.node[21].app.bundlesNumber = "13,5,10,14,5,22,11,18,1,1"
dtnsim.node[21].app.start = "14,99,30,97,18,14,100,58,27,92"
dtnsim.node[21].app.destinationEid = "107,69,83,76,47,22,9,56,97,98"
dtnsim.node[21].app.size = "500,100,500,500,500,200,50,50,500,100"
# Node 22 random traffic
dtnsim.node[22].app.enable = true
dtnsim.node[22].app.bundlesNumber = "21,24,5,21,10,18,1"
dtnsim.node[22].app.start = "63,13,75,25,91,4,60"
dtnsim.node[22].app.destinationEid = "47,93,90,32,116,50,79"
dtnsim.node[22].app.size = "50,500,100,50,500,500,200"
# Node 23 random traffic
dtnsim.node[23].app.enable = true
dtnsim.node[23].app.bundlesNumber = "25,3,8,6,11,12,18,5,3,6,3"
dtnsim.node[23].app.start = "92,9,29,45,97,97,25,88,69,47,14"
dtnsim.node[23].app.destinationEid = "76,94,2,36,68,1,95,53,87,65,14"
dtnsim.node[23].app.size = "500,200,50,100,100,50,100,200,200,500,500"
# Node 24 random traffic
dtnsim.node[24].app.enable = true
dtnsim.node[24].app.bundlesNumber = "10,22,21,16,24,7"
dtnsim.node[24].app.start = "44,85,1,87,85,99"
dtnsim.node[24].app.destinationEid = "76,117,5,36,80,89"
dtnsim.node[24].app.size = "100,50,200,200,200,100"
# Node 25 random traffic
dtnsim.node[25].app.enable = true
dtnsim.node[25].app.bundlesNumber = "6,20,6,2,10,14,12,13,14,2,1"
dtnsim.node[25].app.start = "37,92,86,100,84,25,37,70,54,1,89"
dtnsim.node[25].app.destinationEid = "11,102,44,96,40,66,30,109,107,36,56"
dtnsim.node[25].app.size = "50,50,100,50,50,100,50,200,50,50,200"
# Node 26 random traffic
dtnsim.node[26].app.enable = true
dtnsim.node[26].app.bundlesNumber = "15,3,25,11,14,13,7,3,1,2,1,4,1"
dtnsim.node[26].app.start = "56,2,56,98,66,64,1,50,38,86,39,55,27"
dtnsim.node[26].app.destinationEid = "64,77,98,84,53,27,21,89,10,112,43,88,36"
dtnsim.node[26].app.size = "50,500,50,500,500,500,100,200,200,50,50,200,100"
# Node 27 random traffic
dtnsim.node[27].app.enable = true
dtnsim.node[27].app.bundlesNumber = "24,21,6,22,14,11,2"
dtnsim.node[27].app.start = "67,15,32,78,76,18,49"
dtnsim.node[27].app.destinationEid = "63,109,115,33,80,28,73"
dtnsim.node[27].app.size = "100,200,200,50,100,100,50"
# Node 28 random traffic
dtnsim.node[28].app.enable = true
dtnsim.node[28].app.bundlesNumber = "4,17,16,18,8,23,12,2"
dtnsim.node[28].app.start = "65,97,17,86,96,77,54,61"
dtnsim.node[28].app.destinationEid = "60,93,73,4,107,115,24,91"
dtnsim.node[28].app.size = "500,500,100,50,50,50,100,500"
# Node 29 random traffic
dtnsim.node[29].app.enable = true
dtnsim.node[29].app.bundlesNumber = "19,23,2,19,24,10,2,1"
dtnsim.node[29].app.start = "46,31,28,1,91,2,1,21"
dtnsim.node[29].app.destinationEid = "45,103,3,36,112,30,79,104"
dtnsim.node[29].app.size = "100,50,200,50,200,500,50,50"
# Node 30 random traffic
dtnsim.node[30].app.enable = true
dtnsim.node[30].app.bundlesNumber = "9,4,20,10,13,18,15,3,1,6,1"
dtnsim.node[30].app.start = "49,93,51,47,70,100,56,100,54,15,55"
dtnsim.node[30].app.destinationEid = "74,97,65,55,79,6,38,28,37,82,83"
dtnsim.node[30].app.size = "500,100,50,100,500,100,500,200,200,100,500"
# Node 31 random traffic
dtnsim.node[31].app.enable = true
dtnsim.node[31].app.bundlesNumber = "24,11,5,16,12,3,16,12,1"
dtnsim.node[31].app.start = "55,69,56,11,30,16,25,70,5"
dtnsim.node[31].app.destinationEid = "120,44,116,69,109,62,89,60,9"
dtnsim.node[31].app.size = "500,50,500,100,200,50,50,100,50"
# Node 32 random traffic
dtnsim.node[32].app.enable = true
dtnsim.node[32].app.bundlesNumber = "13,12,24,14,11,11,6,6,2,1"
dtnsim.node[32].app.start = "36,34,39,41,13,52,4,37,14,78"
dtnsim.node[32].app.destinationEid = "75,40,101,94,110,33,30,96,3,108"
dtnsim.node[32].app.size = "200,50,500,500,100,100,50,200,100,50"
# Node 33 random traffic
dtnsim.node[33].app.enable = true
dtnsim.node[33].app.bundlesNumber = "2,8,15,15,21,14,13,12"
dtnsim.node[33].app.start = "49,79,99,81,37,75,23,99"
dtnsim.node[33].app.destinationEid = "88,43,68,5,32,31,106,48"
dtnsim.node[33].app.size = "50,100,100,100,200,100,200,200"
# Node 34 random traffic
dtnsim.node[34].app.enable = true
dtnsim.node[34].app.bundlesNumber = "9,19,2,24,16,7,18,1,4"
dtnsim.node[34].app.start = "15,21,70,55,61,87,72,59,44"
dtnsim.node[34].app.destinationEid = "57,60,115,88,29,78,98,106,88"
dtnsim.node[34].app.size = "100,100,50,500,50,200,500,100,500"
# Node 35 random traffic
dtnsim.node[35].app.enable = true
dtnsim.node[35].app.bundlesNumber = "15,18,14,22,4,6,9,10,1,1"
dtnsim.node[35].app.start = "75,71,68,73,2,24,20,45,18,7"
dtnsim.node[35].app.destinationEid = "111,94,34,19,110,34,17,68,22,108"
dtnsim.node[35].app.size = "500,500,200,100,500,100,50,200,200,500"
# Node 36 random traffic
dtnsim.node[36].app.enable = true
dtnsim.node[36].app.bundlesNumber = "1,9,8,19,19,15,16,2,5,3,1,1,1"
dtnsim.node[36].app.start = "8,57,6,83,80,46,46,38,100,87,95,52,95"
dtnsim.node[36].app.destinationEid = "106,76,31,108,102,50,120,106,94,81,86,111,56"
dtnsim.node[36].app.size = "500,100,100,50,100,500,500,200,50,500,500,200,50"
# Node 37 random traffic
dtnsim.node[37].app.enable = true
dtnsim.node[37].app.bundlesNumber = "18,25,19,9,21,4,2,2"
dtnsim.node[37].app.start = "35,21,11,67,87,93,61,42"
dtnsim.node[37].app.destinationEid = "113,27,116,19,62,109,80,32"
dtnsim.node[37].app.size = "100,200,100,200,200,100,200,200"
# Node 38 random traffic
dtnsim.node[38].app.enable = true
dtnsim.node[38].app.bundlesNumber = "19,21,4,20,20,4,9,3"
dtnsim.node[38].app.start = "78,49,26,55,18,43,3,86"
dtnsim.node[38].app.destinationEid = "42,86,36,94,62,81,82,34"
dtnsim.node[38].app.size = "100,500,100,50,500,500,500,100"
# Node 39 random traffic
dtnsim.node[39].app.enable = true
dtnsim.node[39].app.bundlesNumber = "2,16,14,15,20,13,12,2,5,1"
dtnsim.node[39].app.start = "21,39,57,96,32,58,4,86,45,55"
dtnsim.node[39].app.destinationEid = "53,34,107,69,92,54,19,79,9,51"
dtnsim.node[39].app.size = "50,50,500,500,50,200,500,50,50,50"
# Node 40 random traffic
dtnsim.node[40].app.enable = true
dtnsim.node[40].app.bundlesNumber = "5,2,5,20,7,17,3,11,7,23"
dtnsim.node[40].app.start = "62,39,61,91,71,24,53,19,30,36"
dtnsim.node[40].app.destinationEid = "88,20,67,17,3,119,19,96,43,20"
dtnsim.node[40].app.size = "50,100,200,50,100,100,50,200,500,100"
# Node 41 random traffic
dtnsim.node[41].app.enable = true
dtnsim.node[41].app.bundlesNumber = "1,22,18,21,23,15"
dtnsim.node[41].app.start = "81,8,46,82,42,12"
dtnsim.node[41].app.destinationEid = "91,49,20,118,60,49"
dtnsim.node[41].app.size = "500,200,50,500,500,100"
# Node 42 random traffic
dtnsim.node[42].app.enable = true
dtnsim.node[42].app.bundlesNumber = "8,18,15,16,24,8,10,1"
dtnsim.node[42].app.start = "21,78,10,53,31,95,59,70"
dtnsim.node[42].app.destinationEid = "117,86,45,26,45,45,38,4"
dtnsim.node[42].app.size = "50,50,50,200,200,200,100,500"
# Node 43 random traffic
dtnsim.node[43].app.enable = true
dtnsim.node[43].app.bundlesNumber = "19,22,24,20,5,6,1,3"
dtnsim.node[43].app.start = "35,29,87,7,2,98,70,93"
dtnsim.node[43].app.destinationEid = "26,95,4,18,120,18,95,28"
dtnsim.node[43].app.size = "50,50,200,500,200,100,200,50"
# Node 44 random traffic
dtnsim.node[44].app.enable = true
dtnsim.node[44].app.bundlesNumber = "1,18,2,12,20,21,25,1"
dtnsim.node[44].app.start = "41,15,99,61,79,37,71,23"
dtnsim.node[44].app.destinationEid = "106,82,43,32,112,78,38,55"
dtnsim.node[44].app.size = "50,50,200,200,100,100,500,200"
# Node 45 random traffic
dtnsim.node[45].app.enable = true
dtnsim.node[45].app.bundlesNumber = "12,6,4,19,24,23,10,1,1"
dtnsim.node[45].app.start = "92,12,67,15,60,82,17,34,62"
dtnsim.node[45].app.destinationEid = "98,91,83,87,78,4,15,60,98"
dtnsim.node[45].app.size = "500,500,50,500,200,500,50,500,100"
# Node 46 random traffic
dtnsim.node[46].app.enable = true
dtnsim.node[46].app.bundlesNumber = "7,11,22,15,15,1,4,19,2,2,1,1"
dtnsim.node[46].app.start = "1,69,70,44,1,85,71,87,39,98,3,58"
dtnsim.node[46].app.destinationEid = "113,5,10,95,59,80,51,58,93,73,2,52"
dtnsim.node[46].app.size = "100,50,50,100,500,200,50,500,200,200,100,50"
# Node 47 random traffic
dtnsim.node[47].app.enable = true
dtnsim.node[47].app.bundlesNumber = "25,3,2,5,12,18,3,9,2,5,5,4,2,5"
dtnsim.node[47].app.start = "31,79,49,13,64,23,72,79,27,29,10,57,40,33"
dtnsim.node[47].app.destinationEid = "71,119,69,35,104,114,88,41,83,33,2,42,92,19"
dtnsim.node[47].app.size = "200,200,50,100,500,50,50,500,500,100,100,100,500,500"
# Node 48 random traffic
dtnsim.node[48].app.enable = true
dtnsim.node[48].app.bundlesNumber = "8,19,12,9,16,5,9,15,7"
dtnsim.node[48].app.start = "18,85,15,36,100,89,46,98,19"
dtnsim.node[48].app.destinationEid = "74,112,58,117,106,34,10,67,70"
dtnsim.node[48].app.size = "200,500,200,500,50,500,500,50,100"
# Node 49 random traffic
dtnsim.node[49].app.enable = true
dtnsim.node[49].app.bundlesNumber = "18,13,19,13,20,9,1,2,5"
dtnsim.node[49].app.start = "36,62,74,57,27,53,9,2,35"
dtnsim.node[49].app.destinationEid = "98,59,68,95,78,109,118,20,72"
dtnsim.node[49].app.size = "50,50,50,100,200,200,500,200,50"
# Node 50 random traffic
dtnsim.node[50].app.enable = true
dtnsim.node[50].app.bundlesNumber = "3,21,17,12,24,19,3,1"
dtnsim.node[50].app.start = "6,67,77,29,6,93,50,56"
dtnsim.node[50].app.destinationEid = "103,108,21,85,112,26,21,27"
dtnsim.node[50].app.size = "50,500,50,50,500,50,50,200"
# Node 51 random traffic
dtnsim.node[51].app.enable = true
dtnsim.node[51].app.bundlesNumber = "8,7,12,8,22,5,1,14,19,1,3"
dtnsim.node[51].app.start = "84,19,26,85,55,14,47,22,58,79,17"
dtnsim.node[51].app.destinationEid = "85,50,63,63,7,117,66,120,65,36,8"
dtnsim.node[51].app.size = "50,50,200,500,200,200,500,50,500,50,50"
# Node 52 random traffic
dtnsim.node[52].app.enable = true
dtnsim.node[52].app.bundlesNumber = "9,19,25,9,18,1,11,3,1,4"
dtnsim.node[52].app.start = "14,68,44,63,88,94,88,53,50,40"
dtnsim.node[52].app.destinationEid = "4,64,21,50,57,90,106,69,102,43"
dtnsim.node[52].app.size = "200,200,500,500,200,100,200,200,100,50"
# Node 53 random traffic
dtnsim.node[53].app.enable = true
dtnsim.node[53].app.bundlesNumber = "1,9,20,12,12,24,17,2,1,1,1"
dtnsim.node[53].app.start = "28,10,1,23,29,81,52,30,13,89,5"
dtnsim.node[53].app.destinationEid = "16,85,31,12,105,66,4,32,73,113,114"
dtnsim.node[53].app.size = "50,100,100,200,100,500,500,500,500,500,100"
# Node 54 random traffic
dtnsim.node[54].app.enable = true
dtnsim.node[54].app.bundlesNumber = "8,18,6,18,18,21,9,1,1"
dtnsim.node[54].app.start = "63,53,86,60,60,14,75,3,84"
dtnsim.node[54].app.destinationEid = "95,112,7,67,95,55,65,7,106"
dtnsim.node[54].app.size = "100,500,100,50,200,50,200,200,100"
# Node 55 random traffic
dtnsim.node[55].app.enable = true
dtnsim.node[55].app.bundlesNumber = "23,9,3,11,18,15,2,19"
dtnsim.node[55].app.start = "49,67,52,88,67,57,9,50"
dtnsim.node[55].app.destinationEid = "9,53,119,20,62,51,23,37"
dtnsim.node[55].app.size = "500,100,100,100,200,100,50,500"
# Node 56 random traffic
dtnsim.node[56].app.enable = true
dtnsim.node[56].app.bundlesNumber = "18,5,13,11,2,11,11,4,23,1,1"
dtnsim.node[56].app.start = "85,95,9,79,67,31,86,82,7,34,100"
dtnsim.node[56].app.destinationEid = "39,6,3,31,36,115,29,100,77,98,92"
dtnsim.node[56].app.size = "500,50,200,100,50,100,100,50,200,200,50"
# Node 57 random traffic
dtnsim.node[57].app.enable = true
dtnsim.node[57].app.bundlesNumber = "23,14,13,16,24,10"
dtnsim.node[57].app.start = "76,41,3,83,94,7"
dtnsim.node[57].app.destinationEid = "1,46,1,110,116,9"
dtnsim.node[57].app.size = "100,500,100,200,500,100"
# Node 58 random traffic
dtnsim.node[58].app.enable = true
dtnsim.node[58].app.bundlesNumber = "15,6,25,13,6,22,4,7,2"
dtnsim.node[58].app.start = "51,37,81,85,24,74,20,73,88"
dtnsim.node[58].app.destinationEid = "103,97,85,17,113,15,63,38,61"
dtnsim.node[58].app.size = "200,200,50,50,100,500,50,50,200"
# Node 59 random traffic
dtnsim.node[59].app.enable = true
dtnsim.node[59].app.bundlesNumber = "6,20,19,16,19,7,12,1"
dtnsim.node[59].app.start = "15,41,28,60,64,66,52,20"
dtnsim.node[59].app.destinationEid = "1,36,70,92,52,118,8,55"
dtnsim.node[59].app.size = "100,200,200,100,100,50,500,100"
# Node 60 random traffic
dtnsim.node[60].app.enable = true
dtnsim.node[60].app.bundlesNumber = "22,24,2,11,9,2,3,9,7,2,5,3,1"
dtnsim.node[60].app.start = "70,36,18,97,77,39,66,1,76,67,50,86,94"
dtnsim.node[60].app.destinationEid = "110,81,16,61,20,77,105,4,46,64,72,19,63"
dtnsim.node[60].app.size = "50,200,50,50,100,50,500,500,50,100,50,50,200"
# Node 61 random traffic
dtnsim.node[61].app.enable = true
dtnsim.node[61].app.bundlesNumber = "21,15,11,17,22,8,1,4,1"
dtnsim.node[61].app.start = "81,39,69,44,59,17,61,72,32"
dtnsim.node[61].app.destinationEid = "95,97,47,74,10,40,77,80,119"
dtnsim.node[61].app.size = "200,100,100,500,100,500,500,500,200"
# Node 62 random traffic
dtnsim.node[62].app.enable = true
dtnsim.node[62].app.bundlesNumber = "11,19,22,4,15,8,6,13,1,1"
dtnsim.node[62].app.start = "73,96,26,68,15,80,91,1,25,63"
dtnsim.node[62].app.destinationEid = "112,42,84,24,36,31,115,26,78,95"
dtnsim.node[62].app.size = "200,500,50,200,50,500,100,100,200,100"
# Node 63 random traffic
dtnsim.node[63].app.enable = true
dtnsim.node[63].app.bundlesNumber = "15,5,21,7,15,18,18,1"
dtnsim.node[63].app.start = "46,64,86,37,80,35,40,89"
dtnsim.node[63].app.destinationEid = "84,39,46,112,78,1,17,107"
dtnsim.node[63].app.size = "500,50,500,100,50,500,50,500"
# Node 64 random traffic
dtnsim.node[64].app.enable = true
dtnsim.node[64].app.bundlesNumber = "24,17,1,2,18,22,3,3,4,6"
dtnsim.node[64].app.start = "48,91,3,19,83,87,15,8,12,47"
dtnsim.node[64].app.destinationEid = "5,103,90,18,104,99,65,10,89,83"
dtnsim.node[64].app.size = "200,500,200,100,200,100,500,200,100,100"
# Node 65 random traffic
dtnsim.node[65].app.enable = true
dtnsim.node[65].app.bundlesNumber = "24,14,25,2,3,11,20,1"
dtnsim.node[65].app.start = "81,26,5,88,21,53,80,64"
dtnsim.node[65].app.destinationEid = "114,67,1,112,69,81,23,117"
dtnsim.node[65].app.size = "500,200,50,100,500,100,100,100"
# Node 66 random traffic
dtnsim.node[66].app.enable = true
dtnsim.node[66].app.bundlesNumber = "21,10,7,7,22,2,24,5,2"
dtnsim.node[66].app.start = "70,70,49,92,91,59,89,70,20"
dtnsim.node[66].app.destinationEid = "17,77,10,112,92,29,60,102,97"
dtnsim.node[66].app.size = "100,500,50,500,50,50,500,500,200"
# Node 67 random traffic
dtnsim.node[67].app.enable = true
dtnsim.node[67].app.bundlesNumber = "13,14,23,13,6,14,4,7,6"
dtnsim.node[67].app.start = "77,12,17,62,69,68,24,5,51"
dtnsim.node[67].app.destinationEid = "52,54,33,55,79,75,6,48,78"
dtnsim.node[67].app.size = "100,50,50,100,100,200,500,200,500"
# Node 68 random traffic
dtnsim.node[68].app.enable = true
dtnsim.node[68].app.bundlesNumber = "2,3,19,11,17,14,3,11,11,8,1"
dtnsim.node[68].app.start = "5,16,79,53,74,46,16,25,3,13,27"
dtnsim.node[68].app.destinationEid = "15,9,67,83,34,80,59,74,100,103,15"
dtnsim.node[68].app.size = "500,100,200,200,200,100,200,100,50,100,200"
# Node 69 random traffic
dtnsim.node[69].app.enable = true
dtnsim.node[69].app.bundlesNumber = "8,9,13,8,14,19,23,4,1,1"
dtnsim.node[69].app.start = "40,56,3,82,11,32,26,1,13,40"
dtnsim.node[69].app.destinationEid = "4,100,63,101,32,41,1,54,50,88"
dtnsim.node[69].app.size = "200,50,500,50,100,50,50,500,50,200"
# Node 70 random traffic
dtnsim.node[70].app.enable = true
dtnsim.node[70].app.bundlesNumber = "24,25,8,8,11,1,15,4,1,1,1,1"
dtnsim.node[70].app.start = "18,71,81,32,36,84,65,64,98,83,68,24"
dtnsim.node[70].app.destinationEid = "62,43,38,90,40,29,107,38,22,50,72,46"
dtnsim.node[70].app.size = "500,500,50,100,200,200,500,500,500,50,500,200"
# Node 71 random traffic
dtnsim.node[71].app.enable = true
dtnsim.node[71].app.bundlesNumber = "9,13,10,19,7,13,1,22,2,4"
dtnsim.node[71].app.start = "71,49,72,41,69,76,9,21,39,76"
dtnsim.node[71].app.destinationEid = "74,46,64,65,58,45,70,41,109,43"
dtnsim.node[71].app.size = "200,500,100,200,50,50,500,100,50,500"
# Node 72 random traffic
dtnsim.node[72].app.enable = true
dtnsim.node[72].app.bundlesNumber = "18,15,16,17,14,1,19"
dtnsim.node[72].app.start = "80,67,23,98,79,68,65"
dtnsim.node[72].app.destinationEid = "17,47,2,47,26,80,9"
dtnsim.node[72].app.size = "200,200,100,50,50,100,100"
# Node 73 random traffic
dtnsim.node[73].app.enable = true
dtnsim.node[73].app.bundlesNumber = "15,20,16,18,15,15,1"
dtnsim.node[73].app.start = "26,30,15,52,94,38,38"
dtnsim.node[73].app.destinationEid = "5,27,109,5,113,116,42"
dtnsim.node[73].app.size = "500,50,50,200,100,200,100"
# Node 74 random traffic
dtnsim.node[74].app.enable = true
dtnsim.node[74].app.bundlesNumber = "24,9,3,4,5,11,20,13,8,1,2"
dtnsim.node[74].app.start = "11,11,99,2,77,83,48,26,50,49,45"
dtnsim.node[74].app.destinationEid = "93,108,111,50,119,89,94,84,114,108,80"
dtnsim.node[74].app.size = "500,50,50,50,100,50,50,50,50,100,50"
# Node 75 random traffic
dtnsim.node[75].app.enable = true
dtnsim.node[75].app.bundlesNumber = "8,20,14,7,2,17,7,18,4,1,1,1"
dtnsim.node[75].app.start = "98,32,67,43,49,78,84,65,21,80,36,3"
dtnsim.node[75].app.destinationEid = "96,94,14,51,30,40,10,103,25,18,47,24"
dtnsim.node[75].app.size = "200,200,50,50,100,50,200,500,50,50,200,200"
# Node 76 random traffic
dtnsim.node[76].app.enable = true
dtnsim.node[76].app.bundlesNumber = "25,19,14,23,19"
dtnsim.node[76].app.start = "30,77,14,76,13"
dtnsim.node[76].app.destinationEid = "11,104,110,30,83"
dtnsim.node[76].app.size = "50,50,200,50,500"
# Node 77 random traffic
dtnsim.node[77].app.enable = true
dtnsim.node[77].app.bundlesNumber = "20,17,1,3,1,25,23,5,3,1,1"
dtnsim.node[77].app.start = "51,76,55,38,84,14,10,19,18,70,97"
dtnsim.node[77].app.destinationEid = "90,60,99,109,70,59,98,67,53,117,45"
dtnsim.node[77].app.size = "500,200,500,500,200,500,100,500,100,200,200"
# Node 78 random traffic
dtnsim.node[78].app.enable = true
dtnsim.node[78].app.bundlesNumber = "6,24,19,8,17,22,4"
dtnsim.node[78].app.start = "29,7,65,52,88,59,35"
dtnsim.node[78].app.destinationEid = "81,44,69,4,61,86,99"
dtnsim.node[78].app.size = "50,500,500,100,100,500,100"
# Node 79 random traffic
dtnsim.node[79].app.enable = true
dtnsim.node[79].app.bundlesNumber = "10,13,23,21,18,4,1,6,2,1,1"
dtnsim.node[79].app.start = "87,61,11,79,43,46,86,28,66,40,27"
dtnsim.node[79].app.destinationEid = "39,75,102,36,93,89,118,35,43,59,5"
dtnsim.node[79].app.size = "100,200,100,50,100,50,50,200,500,200,500"
# Node 80 random traffic
dtnsim.node[80].app.enable = true
dtnsim.node[80].app.bundlesNumber = "22,6,1,2,5,16,19,5,10,5,1,1,4,2,1"
dtnsim.node[80].app.start = "1,48,79,77,14,44,37,93,38,11,68,10,52,18,85"
dtnsim.node[80].app.destinationEid = "74,15,79,6,26,17,43,20,5,107,54,46,111,99,29"
dtnsim.node[80].app.size = "500,200,200,50,100,500,500,50,50,50,500,100,200,500,200"
# Node 81 random traffic
dtnsim.node[81].app.enable = true
dtnsim.node[81].app.bundlesNumber = "10,8,18,7,15,2,21,3,8,8"
dtnsim.node[81].app.start = "73,73,21,55,22,73,83,100,5,33"
dtnsim.node[81].app.destinationEid = "109,14,21,79,44,10,87,101,113,20"
dtnsim.node[81].app.size = "100,100,500,50,200,500,50,50,500,50"
# Node 82 random traffic
dtnsim.node[82].app.enable = true
dtnsim.node[82].app.bundlesNumber = "16,11,3,1,1,16,14,2,25,10,1"
dtnsim.node[82].app.start = "45,11,50,47,89,55,80,24,96,80,27"
dtnsim.node[82].app.destinationEid = "81,31,26,120,14,57,48,45,88,72,23"
dtnsim.node[82].app.size = "50,500,500,200,500,100,50,100,100,500,500"
# Node 83 random traffic
dtnsim.node[83].app.enable = true
dtnsim.node[83].app.bundlesNumber = "23,1,15,16,8,14,17,6"
dtnsim.node[83].app.start = "64,54,28,28,74,95,57,39"
dtnsim.node[83].app.destinationEid = "36,66,27,43,68,1,47,90"
dtnsim.node[83].app.size = "200,100,100,50,50,200,100,50"
# Node 84 random traffic
dtnsim.node[84].app.enable = true
dtnsim.node[84].app.bundlesNumber = "19,21,6,13,11,7,16,1,5,1"
dtnsim.node[84].app.start = "53,63,73,98,54,30,22,69,55,35"
dtnsim.node[84].app.destinationEid = "24,15,57,79,3,53,22,28,22,62"
dtnsim.node[84].app.size = "500,100,500,100,200,50,50,50,100,100"
# Node 85 random traffic
dtnsim.node[85].app.enable = true
dtnsim.node[85].app.bundlesNumber = "12,19,7,18,18,16,6,3,1"
dtnsim.node[85].app.start = "7,1,89,25,75,20,39,45,61"
dtnsim.node[85].app.destinationEid = "9,67,7,111,98,63,7,7,93"
dtnsim.node[85].app.size = "100,200,500,50,100,50,50,50,500"
# Node 86 random traffic
dtnsim.node[86].app.enable = true
dtnsim.node[86].app.bundlesNumber = "25,1,5,6,5,22,23,12,1"
dtnsim.node[86].app.start = "45,97,72,55,83,86,39,20,16"
dtnsim.node[86].app.destinationEid = "45,5,113,82,41,34,60,102,30"
dtnsim.node[86].app.size = "200,100,200,200,200,200,100,50,500"
# Node 87 random traffic
dtnsim.node[87].app.enable = true
dtnsim.node[87].app.bundlesNumber = "6,15,17,3,15,4,24,3,3,7,3"
dtnsim.node[87].app.start = "83,93,82,22,88,60,54,18,29,46,99"
dtnsim.node[87].app.destinationEid = "98,13,69,99,52,16,72,20,92,1,46"
dtnsim.node[87].app.size = "100,200,50,200,200,50,50,500,100,500,50"
# Node 88 random traffic
dtnsim.node[88].app.enable = true
dtnsim.node[88].app.bundlesNumber = "7,17,22,12,3,14,3,8,12,2"
dtnsim.node[88].app.start = "21,29,24,100,10,100,9,95,7,91"
dtnsim.node[88].app.destinationEid = "61,66,52,32,24,76,35,66,90,81"
dtnsim.node[88].app.size = "100,50,200,100,100,100,200,100,500,500"
# Node 89 random traffic
dtnsim.node[89].app.enable = true
dtnsim.node[89].app.bundlesNumber = "25,21,20,17,7,8,1,1"
dtnsim.node[89].app.start = "16,50,86,92,89,42,46,47"
dtnsim.node[89].app.destinationEid = "38,77,18,17,75,107,32,117"
dtnsim.node[89].app.size = "50,50,50,50,200,200,200,50"
# Node 90 random traffic
dtnsim.node[90].app.enable = true
dtnsim.node[90].app.bundlesNumber = "9,12,8,25,14,12,15,5"
dtnsim.node[90].app.start = "41,15,84,69,68,39,56,29"
dtnsim.node[90].app.destinationEid = "34,21,35,16,109,17,8,82"
dtnsim.node[90].app.size = "100,100,500,500,100,500,100,50"
# Node 91 random traffic
dtnsim.node[91].app.enable = true
dtnsim.node[91].app.bundlesNumber = "25,15,18,15,1,2,24"
dtnsim.node[91].app.start = "81,78,59,52,76,62,75"
dtnsim.node[91].app.destinationEid = "65,46,117,53,41,38,6"
dtnsim.node[91].app.size = "500,500,200,50,500,500,500"
# Node 92 random traffic
dtnsim.node[92].app.enable = true
dtnsim.node[92].app.bundlesNumber = "15,25,5,25,11,12,3,3,1"
dtnsim.node[92].app.start = "83,4,61,54,45,35,97,74,63"
dtnsim.node[92].app.destinationEid = "96,87,29,108,19,34,69,115,96"
dtnsim.node[92].app.size = "500,50,500,500,200,500,100,50,200"
# Node 93 random traffic
dtnsim.node[93].app.enable = true
dtnsim.node[93].app.bundlesNumber = "16,24,11,8,24,5,4,8"
dtnsim.node[93].app.start = "81,41,95,93,40,89,4,76"
dtnsim.node[93].app.destinationEid = "119,18,11,75,65,65,22,81"
dtnsim.node[93].app.size = "50,200,50,50,200,50,200,200"
# Node 94 random traffic
dtnsim.node[94].app.enable = true
dtnsim.node[94].app.bundlesNumber = "22,7,24,25,20,2"
dtnsim.node[94].app.start = "69,71,74,98,82,45"
dtnsim.node[94].app.destinationEid = "105,56,81,35,10,78"
dtnsim.node[94].app.size = "200,500,50,100,50,50"
# Node 95 random traffic
dtnsim.node[95].app.enable = true
dtnsim.node[95].app.bundlesNumber = "19,15,23,11,20,5,1,5,1"
dtnsim.node[95].app.start = "32,73,26,72,57,53,99,52,73"