[General]
network = src.dtnsim										
repeat = 1
allow-object-stealing-on-deletion = true

# Simulation end time
sim-time-limit = 84600s

# Nodes quantity (identifiers (EiDs) matches their index, EiD=0 is ignored)			
dtnsim.nodesNumber = 180
dtnsim.node[*].icon = "satellite"

# Nodes's failure rates
dtnsim.node[*].fault.enable = true
dtnsim.node[*].fault.meanTTF = 40s
dtnsim.node[*].fault.meanTTR = 10s

dtnsim.node[*].dtn.routing = "cgrModel350"
dtnsim.node[*].dtn.printRoutingDebug = true

# --- Random Traffic Configuration ---
# Node 1 random traffic
dtnsim.node[1].app.enable = true
dtnsim.node[1].app.bundlesNumber = "7,11,18,4,25,10,12,13"
dtnsim.node[1].app.start = "84,49,20,9,77,71,31,5"
dtnsim.node[1].app.destinationEid = "126,147,75,54,146,143,137,55"
dtnsim.node[1].app.size = "100,500,50,50,200,500,200,100"
# Node 2 random traffic
dtnsim.node[2].app.enable = true
dtnsim.node[2].app.bundlesNumber = "24,17,2,23,9,25"
dtnsim.node[2].app.start = "46,97,21,3,100,84"
dtnsim.node[2].app.destinationEid = "159,55,86,21,168,109"
dtnsim.node[2].app.size = "50,100,50,100,500,50"
# Node 3 random traffic
dtnsim.node[3].app.enable = true
dtnsim.node[3].app.bundlesNumber = "1,20,7,2,16,10,14,24,4,2"
dtnsim.node[3].app.start = "28,31,4,8,96,47,46,42,70,30"
dtnsim.node[3].app.destinationEid = "156,133,161,40,137,166,121,117,104,140"
dtnsim.node[3].app.size = "100,500,50,100,500,200,50,100,100,100"
# Node 4 random traffic
dtnsim.node[4].app.enable = true
dtnsim.node[4].app.bundlesNumber = "23,19,18,17,16,5,1,1"
dtnsim.node[4].app.start = "54,87,42,86,78,16,100,62"
dtnsim.node[4].app.destinationEid = "144,20,130,6,107,51,35,15"
dtnsim.node[4].app.size = "50,200,100,100,50,200,50,500"
# Node 5 random traffic
dtnsim.node[5].app.enable = true
dtnsim.node[5].app.bundlesNumber = "11,3,18,16,10,3,16,8,9,4,1,1"
dtnsim.node[5].app.start = "42,83,11,8,63,88,6,1,9,6,88,17"
dtnsim.node[5].app.destinationEid = "170,63,38,102,143,52,174,36,15,93,99,82"
dtnsim.node[5].app.size = "500,200,500,100,50,500,50,100,200,200,500,50"
# Node 6 random traffic
dtnsim.node[6].app.enable = true
dtnsim.node[6].app.bundlesNumber = "3,12,13,9,5,19,8,21,3,2,1,1,1,2"
dtnsim.node[6].app.start = "35,69,10,86,91,49,68,73,64,72,82,36,19,68"
dtnsim.node[6].app.destinationEid = "80,14,132,14,113,82,137,107,169,14,94,30,149,113"
dtnsim.node[6].app.size = "50,100,100,50,50,200,50,200,200,500,500,500,50,500"
# Node 7 random traffic
dtnsim.node[7].app.enable = true
dtnsim.node[7].app.bundlesNumber = "18,16,12,2,14,19,19"
dtnsim.node[7].app.start = "18,99,70,75,12,58,18"
dtnsim.node[7].app.destinationEid = "119,51,160,155,68,3,155"
dtnsim.node[7].app.size = "100,500,50,100,200,200,50"
# Node 8 random traffic
dtnsim.node[8].app.enable = true
dtnsim.node[8].app.bundlesNumber = "6,18,22,22,21,10,1"
dtnsim.node[8].app.start = "29,62,58,63,12,35,73"
dtnsim.node[8].app.destinationEid = "21,83,48,148,81,130,110"
dtnsim.node[8].app.size = "500,500,200,500,500,200,200"
# Node 9 random traffic
dtnsim.node[9].app.enable = true
dtnsim.node[9].app.bundlesNumber = "19,18,3,19,18,5,17,1"
dtnsim.node[9].app.start = "43,97,54,39,17,6,42,94"
dtnsim.node[9].app.destinationEid = "77,64,133,30,99,151,78,86"
dtnsim.node[9].app.size = "500,100,100,500,200,500,100,100"
# Node 10 random traffic
dtnsim.node[10].app.enable = true
dtnsim.node[10].app.bundlesNumber = "8,17,15,1,25,14,5,9,4,1,1"
dtnsim.node[10].app.start = "36,37,63,66,16,14,81,30,54,69,3"
dtnsim.node[10].app.destinationEid = "156,49,168,26,23,166,144,43,152,65,84"
dtnsim.node[10].app.size = "50,500,200,200,50,100,200,200,50,500,200"
# Node 11 random traffic
dtnsim.node[11].app.enable = true
dtnsim.node[11].app.bundlesNumber = "7,17,11,24,18,7,11,3,1,1"
dtnsim.node[11].app.start = "50,55,58,10,92,64,40,97,39,31"
dtnsim.node[11].app.destinationEid = "161,170,23,1,12,21,61,64,37,32"
dtnsim.node[11].app.size = "500,500,200,100,200,50,50,50,500,50"
# Node 12 random traffic
dtnsim.node[12].app.enable = true
dtnsim.node[12].app.bundlesNumber = "12,17,21,23,22,3,2"
dtnsim.node[12].app.start = "42,3,38,86,59,91,42"
dtnsim.node[12].app.destinationEid = "62,114,46,93,88,169,107"
dtnsim.node[12].app.size = "500,500,100,50,200,100,200"
# Node 13 random traffic
dtnsim.node[13].app.enable = true
dtnsim.node[13].app.bundlesNumber = "16,23,11,2,2,24,14,7,1"
dtnsim.node[13].app.start = "41,51,58,77,98,54,18,97,85"
dtnsim.node[13].app.destinationEid = "134,44,178,155,148,40,155,167,68"
dtnsim.node[13].app.size = "500,100,200,50,500,100,500,500,100"
# Node 14 random traffic
dtnsim.node[14].app.enable = true
dtnsim.node[14].app.bundlesNumber = "1,4,12,21,18,4,21,14,4,1"
dtnsim.node[14].app.start = "21,79,5,60,45,1,62,53,40,19"
dtnsim.node[14].app.destinationEid = "9,10,35,103,27,124,113,23,91,126"
dtnsim.node[14].app.size = "50,100,100,500,200,200,500,500,200,200"
# Node 15 random traffic
dtnsim.node[15].app.enable = true
dtnsim.node[15].app.bundlesNumber = "6,14,24,25,6,14,8,3"
dtnsim.node[15].app.start = "28,45,88,17,93,48,69,22"
dtnsim.node[15].app.destinationEid = "157,30,51,63,59,45,30,98"
dtnsim.node[15].app.size = "500,200,500,200,500,100,200,100"
# Node 16 random traffic
dtnsim.node[16].app.enable = true
dtnsim.node[16].app.bundlesNumber = "7,18,4,21,16,12,1,12,4,4,1"
dtnsim.node[16].app.start = "38,51,92,31,49,89,58,90,7,37,51"
dtnsim.node[16].app.destinationEid = "73,107,10,129,45,128,62,86,91,20,104"
dtnsim.node[16].app.size = "100,500,100,100,100,500,100,50,500,500,50"
# Node 17 random traffic
dtnsim.node[17].app.enable = true
dtnsim.node[17].app.bundlesNumber = "18,11,9,5,18,1,4,21,9,2,1,1"
dtnsim.node[17].app.start = "16,83,23,29,95,28,17,26,69,29,48,4"
dtnsim.node[17].app.destinationEid = "153,125,12,70,179,28,1,54,109,85,39,156"
dtnsim.node[17].app.size = "100,50,50,200,50,50,200,100,500,200,50,50"
# Node 18 random traffic
dtnsim.node[18].app.enable = true
dtnsim.node[18].app.bundlesNumber = "4,1,7,11,15,18,9,8,17,7,2,1"
dtnsim.node[18].app.start = "30,77,71,55,63,64,86,77,8,76,50,21"
dtnsim.node[18].app.destinationEid = "49,69,175,46,75,145,101,143,105,2,108,67"
dtnsim.node[18].app.size = "100,500,500,100,500,200,200,500,200,200,50,500"
# Node 19 random traffic
dtnsim.node[19].app.enable = true
dtnsim.node[19].app.bundlesNumber = "5,22,12,1,22,18,12,1,6,1"
dtnsim.node[19].app.start = "7,79,63,84,27,47,77,9,2,5"
dtnsim.node[19].app.destinationEid = "55,98,25,52,115,29,167,42,27,65"
dtnsim.node[19].app.size = "100,100,200,500,500,100,200,500,500,500"
# Node 20 random traffic
dtnsim.node[20].app.enable = true
dtnsim.node[20].app.bundlesNumber = "14,19,3,24,14,6,11,1,7,1"
dtnsim.node[20].app.start = "55,83,31,90,6,71,35,88,23,80"
dtnsim.node[20].app.destinationEid = "12,23,96,2,56,148,117,61,120,56"
dtnsim.node[20].app.size = "200,500,100,50,500,50,100,500,100,200"
# Node 21 random traffic
dtnsim.node[21].app.enable = true
dtnsim.node[21].app.bundlesNumber = "18,25,4,24,9,1,8,1,6,1,2,1"
dtnsim.node[21].app.start = "98,31,18,18,77,52,29,64,83,80,34,81"
dtnsim.node[21].app.destinationEid = "65,97,175,144,26,9,146,132,34,137,34,1"
dtnsim.node[21].app.size = "200,200,200,500,500,50,50,100,100,50,100,50"
# Node 22 random traffic
dtnsim.node[22].app.enable = true
dtnsim.node[22].app.bundlesNumber = "19,9,11,21,11,7,19,3"
dtnsim.node[22].app.start = "45,21,40,29,51,92,45,76"
dtnsim.node[22].app.destinationEid = "14,125,95,128,129,28,121,160"
dtnsim.node[22].app.size = "50,50,200,100,100,200,200,100"
# Node 23 random traffic
dtnsim.node[23].app.enable = true
dtnsim.node[23].app.bundlesNumber = "8,8,3,21,5,9,12,7,22,3,1,1"
dtnsim.node[23].app.start = "97,63,5,23,66,33,24,96,33,96,83,3"
dtnsim.node[23].app.destinationEid = "9,83,129,100,139,9,32,152,34,7,31,137"
dtnsim.node[23].app.size = "100,50,50,500,200,100,100,200,50,500,50,500"
# Node 24 random traffic
dtnsim.node[24].app.enable = true
dtnsim.node[24].app.bundlesNumber = "11,5,5,22,7,7,25,11,6,1"
dtnsim.node[24].app.start = "66,69,64,56,20,22,46,2,88,17"
dtnsim.node[24].app.destinationEid = "142,63,116,137,109,175,106,80,72,13"
dtnsim.node[24].app.size = "500,100,100,200,50,500,50,100,100,500"
# Node 25 random traffic
dtnsim.node[25].app.enable = true
dtnsim.node[25].app.bundlesNumber = "14,17,11,5,9,10,16,4,4,3,7"
dtnsim.node[25].app.start = "63,45,31,29,98,43,98,59,38,7,31"
dtnsim.node[25].app.destinationEid = "58,39,155,106,169,87,13,103,66,87,172"
dtnsim.node[25].app.size = "50,50,200,100,500,200,50,500,100,500,100"
# Node 26 random traffic
dtnsim.node[26].app.enable = true
dtnsim.node[26].app.bundlesNumber = "19,6,2,20,17,10,14,4,3,5"
dtnsim.node[26].app.start = "37,40,57,30,72,14,94,13,87,23"
dtnsim.node[26].app.destinationEid = "130,180,51,54,143,61,43,6,81,89"
dtnsim.node[26].app.size = "200,200,50,100,50,100,50,100,100,500"
# Node 27 random traffic
dtnsim.node[27].app.enable = true
dtnsim.node[27].app.bundlesNumber = "14,20,17,16,13,11,6,1,2"
dtnsim.node[27].app.start = "40,75,1,76,66,16,89,42,86"
dtnsim.node[27].app.destinationEid = "29,79,1,16,169,115,180,125,5"
dtnsim.node[27].app.size = "500,500,200,50,200,200,500,50,200"
# Node 28 random traffic
dtnsim.node[28].app.enable = true
dtnsim.node[28].app.bundlesNumber = "4,24,3,19,23,20,7"
dtnsim.node[28].app.start = "16,56,69,6,30,80,44"
dtnsim.node[28].app.destinationEid = "122,149,75,155,125,63,16"
dtnsim.node[28].app.size = "50,500,500,500,200,500,200"
# Node 29 random traffic
dtnsim.node[29].app.enable = true
dtnsim.node[29].app.bundlesNumber = "11,4,7,11,11,16,17,7,2,11,1,1,1"
dtnsim.node[29].app.start = "29,27,38,92,52,54,53,21,46,21,46,71,29"
dtnsim.node[29].app.destinationEid = "50,46,170,124,136,70,17,7,85,75,155,56,38"
dtnsim.node[29].app.size = "200,500,200,200,500,50,100,500,100,200,50,200,200"
# Node 30 random traffic
dtnsim.node[30].app.enable = true
dtnsim.node[30].app.bundlesNumber = "10,22,2,11,12,11,23,1,8"
dtnsim.node[30].app.start = "3,91,91,46,77,78,96,68,2"
dtnsim.node[30].app.destinationEid = "10,121,146,148,73,36,173,144,163"
dtnsim.node[30].app.size = "50,200,50,500,200,50,500,500,100"
# Node 31 random traffic
dtnsim.node[31].app.enable = true
dtnsim.node[31].app.bundlesNumber = "17,24,3,23,11,16,1,5"
dtnsim.node[31].app.start = "2,50,2,26,89,83,100,19"
dtnsim.node[31].app.destinationEid = "51,136,76,64,101,166,64,92"
dtnsim.node[31].app.size = "50,50,100,200,100,50,200,100"
# Node 32 random traffic
dtnsim.node[32].app.enable = true
dtnsim.node[32].app.bundlesNumber = "23,4,9,16,16,15,7,9,1"
dtnsim.node[32].app.start = "91,95,82,57,44,4,100,56,34"
dtnsim.node[32].app.destinationEid = "73,49,111,103,6,160,14,61,104"
dtnsim.node[32].app.size = "50,50,500,500,500,500,50,50,500"
# Node 33 random traffic
dtnsim.node[33].app.enable = true
dtnsim.node[33].app.bundlesNumber = "25,16,1,1,17,25,1,5,5,1,3"
dtnsim.node[33].app.start = "55,56,57,40,37,66,71,76,61,80,61"
dtnsim.node[33].app.destinationEid = "75,87,173,59,90,153,7,18,34,132,55"
dtnsim.node[33].app.size = "500,500,500,500,200,200,500,500,50,50,200"
# Node 34 random traffic
dtnsim.node[34].app.enable = true
dtnsim.node[34].app.bundlesNumber = "14,1,10,4,13,2,24,23,4,2,3"
dtnsim.node[34].app.start = "96,70,59,70,50,89,70,55,78,61,95"
dtnsim.node[34].app.destinationEid = "165,86,122,156,114,109,164,111,144,85,45"
dtnsim.node[34].app.size = "50,50,500,50,100,200,50,50,500,500,100"
# Node 35 random traffic
dtnsim.node[35].app.enable = true
dtnsim.node[35].app.bundlesNumber = "4,3,5,23,10,18,16,16,4,1"
dtnsim.node[35].app.start = "16,23,83,99,93,45,40,38,16,27"
dtnsim.node[35].app.destinationEid = "126,121,48,31,168,33,84,38,165,46"
dtnsim.node[35].app.size = "200,200,50,200,50,100,500,100,100,50"
# Node 36 random traffic
dtnsim.node[36].app.enable = true
dtnsim.node[36].app.bundlesNumber = "13,10,1,19,2,9,9,12,14,10,1"
dtnsim.node[36].app.start = "6,56,95,73,1,17,20,14,29,52,97"
dtnsim.node[36].app.destinationEid = "35,78,41,7,155,82,146,85,40,122,27"
dtnsim.node[36].app.size = "50,50,100,500,200,50,100,50,500,200,500"
# Node 37 random traffic
dtnsim.node[37].app.enable = true
dtnsim.node[37].app.bundlesNumber = "13,17,13,14,24,5,5,4,3,2"
dtnsim.node[37].app.start = "22,57,31,47,62,2,8,26,91,100"
dtnsim.node[37].app.destinationEid = "117,51,103,109,8,132,15,155,140,129"
dtnsim.node[37].app.size = "500,50,200,50,50,500,500,100,50,50"
# Node 38 random traffic
dtnsim.node[38].app.enable = true
dtnsim.node[38].app.bundlesNumber = "7,3,7,23,20,20,18,1,1"
dtnsim.node[38].app.start = "11,85,70,96,43,27,17,84,55"
dtnsim.node[38].app.destinationEid = "178,102,47,141,20,165,175,74,107"
dtnsim.node[38].app.size = "100,100,500,500,500,50,200,500,200"
# Node 39 random traffic
dtnsim.node[39].app.enable = true
dtnsim.node[39].app.bundlesNumber = "21,2,9,2,16,23,22,4,1"
dtnsim.node[39].app.start = "8,80,12,45,97,15,13,19,82"
dtnsim.node[39].app.destinationEid = "128,61,27,30,152,177,149,25,20"
dtnsim.node[39].app.size = "200,500,50,50,200,50,100,50,200"
# Node 40 random traffic
dtnsim.node[40].app.enable = true
dtnsim.node[40].app.bundlesNumber = "13,20,10,3,11,16,7,19,1"
dtnsim.node[40].app.start = "45,45,91,58,59,57,45,88,46"
dtnsim.node[40].app.destinationEid = "173,86,147,10,175,44,92,115,23"
dtnsim.node[40].app.size = "200,50,500,100,500,200,200,500,100"
# Node 41 random traffic
dtnsim.node[41].app.enable = true
dtnsim.node[41].app.bundlesNumber = "1,23,5,5,21,21,17,4,2,1"
dtnsim.node[41].app.start = "61,32,67,21,10,97,47,39,26,40"
dtnsim.node[41].app.destinationEid = "98,143,46,78,158,9,34,54,67,137"
dtnsim.node[41].app.size = "100,200,500,100,50,100,200,100,50,200"
# Node 42 random traffic
dtnsim.node[42].app.enable = true
dtnsim.node[42].app.bundlesNumber = "10,20,20,17,3,23,7"
dtnsim.node[42].app.start = "75,98,80,93,30,87,57"
dtnsim.node[42].app.destinationEid = "31,154,43,96,177,25,35"
dtnsim.node[42].app.size = "200,500,200,500,50,200,200"
# Node 43 random traffic
dtnsim.node[43].app.enable = true
dtnsim.node[43].app.bundlesNumber = "7,5,15,23,18,8,1,21,1,1"
dtnsim.node[43].app.start = "90,70,66,55,95,58,13,2,24,1"
dtnsim.node[43].app.destinationEid = "108,133,40,66,123,63,9,130,143,120"
dtnsim.node[43].app.size = "200,500,100,50,50,100,200,200,200,100"
# Node 44 random traffic
dtnsim.node[44].app.enable = true
dtnsim.node[44].app.bundlesNumber = "16,16,13,1,1,17,11,15,3,3,4"
dtnsim.node[44].app.start = "42,21,9,39,100,58,55,87,83,75,29"
dtnsim.node[44].app.destinationEid = "6,9,180,52,70,122,124,64,160,74,109"
dtnsim.node[44].app.size = "500,100,50,200,200,200,100,500,500,50,100"
# Node 45 random traffic
dtnsim.node[45].app.enable = true
dtnsim.node[45].app.bundlesNumber = "8,13,18,3,3,12,14,9,9,9,2"
dtnsim.node[45].app.start = "65,58,85,29,57,59,72,62,26,93,1"
dtnsim.node[45].app.destinationEid = "21,57,177,2,135,40,116,80,82,23,124"
dtnsim.node[45].app.size = "50,500,200,50,200,500,50,500,500,500,50"
# Node 46 random traffic
dtnsim.node[46].app.enable = true
dtnsim.node[46].app.bundlesNumber = "1,22,11,6,5,20,12,13,10"
dtnsim.node[46].app.start = "2,86,73,25,92,71,23,90,66"
dtnsim.node[46].app.destinationEid = "141,177,87,16,65,25,103,156,34"
dtnsim.node[46].app.size = "100,500,500,100,100,200,50,100,200"
# Node 47 random traffic
dtnsim.node[47].app.enable = true
dtnsim.node[47].app.bundlesNumber = "20,8,12,22,21,14,1,2"
dtnsim.node[47].app.start = "89,43,84,5,20,62,59,7"
dtnsim.node[47].app.destinationEid = "179,162,59,166,18,10,171,157"
dtnsim.node[47].app.size = "500,200,100,200,500,50,200,500"
# Node 48 random traffic
dtnsim.node[48].app.enable = true
dtnsim.node[48].app.bundlesNumber = "24,17,12,14,2,16,11,1,2,1"
dtnsim.node[48].app.start = "83,14,60,79,67,36,44,46,29,91"
dtnsim.node[48].app.destinationEid = "4,34,83,174,105,63,162,2,85,159"
dtnsim.node[48].app.size = "500,50,100,50,500,50,50,50,100,200"
# Node 49 random traffic
dtnsim.node[49].app.enable = true
dtnsim.node[49].app.bundlesNumber = "1,7,13,9,2,21,20,8,5,12,2"
dtnsim.node[49].app.start = "20,94,94,92,22,43,81,50,43,41,40"
dtnsim.node[49].app.destinationEid = "107,172,58,38,135,156,93,61,16,115,104"
dtnsim.node[49].app.size = "200,500,500,500,50,500,50,200,50,100,500"
# Node 50 random traffic
dtnsim.node[50].app.enable = true
dtnsim.node[50].app.bundlesNumber = "6,2,2,10,16,21,17,11,2,5,1,3,1,3"
dtnsim.node[50].app.start = "19,9,100,70,95,46,46,12,45,76,83,68,5,91"
dtnsim.node[50].app.destinationEid = "23,37,99,137,93,104,99,107,88,45,27,98,71,5"
dtnsim.node[50].app.size = "200,100,100,500,100,50,500,100,500,50,100,50,50,200"
# Node 51 random traffic
dtnsim.node[51].app.enable = true
dtnsim.node[51].app.bundlesNumber = "1,21,19,15,10,2,22,9,1"
dtnsim.node[51].app.start = "74,27,100,2,96,65,61,2,74"
dtnsim.node[51].app.destinationEid = "148,61,167,31,76,65,79,174,138"
dtnsim.node[51].app.size = "500,500,200,500,200,100,500,200,50"
# Node 52 random traffic
dtnsim.node[52].app.enable = true
dtnsim.node[52].app.bundlesNumber = "11,10,9,3,17,16,5,10,18,1"
dtnsim.node[52].app.start = "36,72,2,15,73,28,46,77,19,8"
dtnsim.node[52].app.destinationEid = "53,69,97,86,83,111,170,4,4,82"
dtnsim.node[52].app.size = "50,500,50,50,200,200,500,50,50,200"
# Node 53 random traffic
dtnsim.node[53].app.enable = true
dtnsim.node[53].app.bundlesNumber = "19,22,24,8,22,1,2,1,1"
dtnsim.node[53].app.start = "42,2,15,93,53,22,32,82,80"
dtnsim.node[53].app.destinationEid = "38,116,11,56,9,90,57,82,120"
dtnsim.node[53].app.size = "500,50,200,500,50,100,100,200,50"
# Node 54 random traffic
dtnsim.node[54].app.enable = true
dtnsim.node[54].app.bundlesNumber = "4,14,21,7,4,11,11,9,11,3,4,1"
dtnsim.node[54].app.start = "51,46,80,17,45,29,35,55,19,69,6,56"
dtnsim.node[54].app.destinationEid = "24,150,67,68,32,77,173,147,42,120,173,2"
dtnsim.node[54].app.size = "100,500,50,50,50,100,500,500,100,500,50,200"
# Node 55 random traffic
dtnsim.node[55].app.enable = true
dtnsim.node[55].app.bundlesNumber = "23,23,24,6,5,4,4,8,1,1,1"
dtnsim.node[55].app.start = "53,84,29,41,69,65,24,100,55,62,43"
dtnsim.node[55].app.destinationEid = "119,79,154,68,155,110,73,112,151,140,79"
dtnsim.node[55].app.size = "500,500,50,200,50,50,100,500,200,100,100"
# Node 56 random traffic
dtnsim.node[56].app.enable = true
dtnsim.node[56].app.bundlesNumber = "15,25,9,11,19,10,2,8,1"
dtnsim.node[56].app.start = "90,69,2,76,38,89,92,85,99"
dtnsim.node[56].app.destinationEid = "137,127,98,16,59,47,61,59,112"
dtnsim.node[56].app.size = "50,100,200,100,50,200,100,500,100"
# Node 57 random traffic
dtnsim.node[57].app.enable = true
dtnsim.node[57].app.bundlesNumber = "14,17,5,21,24,12,7"
dtnsim.node[57].app.start = "78,25,63,91,55,42,59"
dtnsim.node[57].app.destinationEid = "80,51,54,113,120,166,116"
dtnsim.node[57].app.size = "500,500,100,100,100,500,50"
# Node 58 random traffic
dtnsim.node[58].app.enable = true
dtnsim.node[58].app.bundlesNumber = "19,14,10,3,17,20,9,1,6,1"
dtnsim.node[58].app.start = "38,93,73,1,58,36,100,28,73,60"
dtnsim.node[58].app.destinationEid = "3,19,18,36,67,119,8,140,102,150"
dtnsim.node[58].app.size = "200,100,100,50,500,200,200,100,50,100"
# Node 59 random traffic
dtnsim.node[59].app.enable = true
dtnsim.node[59].app.bundlesNumber = "21,5,14,16,7,15,7,14,1"
dtnsim.node[59].app.start = "52,14,14,58,5,94,4,57,41"
dtnsim.node[59].app.destinationEid = "88,98,79,17,66,76,97,167,90"
dtnsim.node[59].app.size = "50,200,200,200,50,50,100,500,50"
# Node 60 random traffic
dtnsim.node[60].app.enable = true
dtnsim.node[60].app.bundlesNumber = "20,9,6,24,10,1,22,2,1,5"
dtnsim.node[60].app.start = "3,36,81,83,26,61,86,90,38,31"
dtnsim.node[60].app.destinationEid = "70,55,161,62,108,129,73,95,26,7"
dtnsim.node[60].app.size = "100,200,500,200,100,100,200,50,500,100"
# Node 61 random traffic
dtnsim.node[61].app.enable = true
dtnsim.node[61].app.bundlesNumber = "19,19,20,25,7,6,4"
dtnsim.node[61].app.start = "98,92,24,80,16,52,69"
dtnsim.node[61].app.destinationEid = "152,38,146,165,16,175,22"
dtnsim.node[61].app.size = "100,100,100,200,100,500,500"
# Node 62 random traffic
dtnsim.node[62].app.enable = true
dtnsim.node[62].app.bundlesNumber = "3,23,3,10,11,8,17,5,2,7,1,4,6"
dtnsim.node[62].app.start = "4,2,37,61,37,83,72,11,48,60,5,83,48"
dtnsim.node[62].app.destinationEid = "19,145,10,43,32,68,109,142,118,8,158,105,93"
dtnsim.node[62].app.size = "50,500,200,50,500,200,500,50,100,50,100,50,200"
# Node 63 random traffic
dtnsim.node[63].app.enable = true
dtnsim.node[63].app.bundlesNumber = "18,1,16,23,22,10,4,1,3,1,1"
dtnsim.node[63].app.start = "86,15,69,71,14,79,82,40,41,38,71"
dtnsim.node[63].app.destinationEid = "62,113,143,81,138,126,177,111,90,175,64"
dtnsim.node[63].app.size = "500,200,500,50,500,200,50,200,200,500,50"
# Node 64 random traffic
dtnsim.node[64].app.enable = true
dtnsim.node[64].app.bundlesNumber = "11,1,4,24,19,6,4,9,20,1,1"
dtnsim.node[64].app.start = "4,54,67,44,61,74,90,9,36,74,43"
dtnsim.node[64].app.destinationEid = "49,145,135,170,154,53,136,34,16,179,147"
dtnsim.node[64].app.size = "500,100,200,100,500,100,100,500,50,100,50"
# Node 65 random traffic
dtnsim.node[65].app.enable = true
dtnsim.node[65].app.bundlesNumber = "13,9,24,22,24,5,2,1"
dtnsim.node[65].app.start = "61,92,22,59,25,23,68,80"
dtnsim.node[65].app.destinationEid = "87,76,171,85,62,56,32,70"
dtnsim.node[65].app.size = "50,100,500,200,500,50,500,50"
# Node 66 random traffic
dtnsim.node[66].app.enable = true
dtnsim.node[66].app.bundlesNumber = "12,15,3,3,5,22,5,10,2,6,9,4,3,1"
dtnsim.node[66].app.start = "8,76,7,4,63,8,33,12,76,20,92,64,60,10"
dtnsim.node[66].app.destinationEid = "103,42,96,24,62,124,136,108,20,33,95,50,153,55"
dtnsim.node[66].app.size = "100,50,100,50,100,500,500,50,50,50,50,200,200,500"
# Node 67 random traffic
dtnsim.node[67].app.enable = true
dtnsim.node[67].app.bundlesNumber = "1,7,4,18,24,17,11,6,8,4"
dtnsim.node[67].app.start = "5,57,73,43,41,24,45,93,97,77"
dtnsim.node[67].app.destinationEid = "48,39,159,149,47,1,50,154,46,72"
dtnsim.node[67].app.size = "500,500,200,100,100,200,200,200,500,50"
# Node 68 random traffic
dtnsim.node[68].app.enable = true
dtnsim.node[68].app.bundlesNumber = "9,4,21,25,4,2,6,6,16,6,1"
dtnsim.node[68].app.start = "20,76,70,96,30,93,23,58,7,30,96"
dtnsim.node[68].app.destinationEid = "54,6,5,86,115,112,13,112,60,114,73"
dtnsim.node[68].app.size = "200,50,500,500,100,100,500,200,500,500,500"
# Node 69 random traffic
dtnsim.node[69].app.enable = true
dtnsim.node[69].app.bundlesNumber = "11,9,12,14,25,24,1,2,1,1"
dtnsim.node[69].app.start = "43,86,68,60,27,51,11,64,89,49"
dtnsim.node[69].app.destinationEid = "32,85,164,15,24,160,75,1,159,66"
dtnsim.node[69].app.size = "100,100,50,500,500,500,500,100,50,50"
# Node 70 random traffic
dtnsim.node[70].app.enable = true
dtnsim.node[70].app.bundlesNumber = "11,13,4,22,18,10,16,6"
dtnsim.node[70].app.start = "21,46,93,86,18,30,14,24"
dtnsim.node[70].app.destinationEid = "76,65,153,33,108,160,57,156"
dtnsim.node[70].app.size = "200,200,500,500,500,50,100,200"
# Node 71 random traffic
dtnsim.node[71].app.enable = true
dtnsim.node[71].app.bundlesNumber = "4,5,18,19,12,23,8,8,3"
dtnsim.node[71].app.start = "33,99,21,8,75,37,69,23,70"
dtnsim.node[71].app.destinationEid = "121,134,159,161,173,106,69,102,109"
dtnsim.node[71].app.size = "500,200,500,50,500,200,100,50,200"
# Node 72 random traffic
dtnsim.node[72].app.enable = true
dtnsim.node[72].app.bundlesNumber = "20,5,24,3,19,7,1,14,6,1"
dtnsim.node[72].app.start = "65,25,86,45,4,2,12,64,32,29"
dtnsim.node[72].app.destinationEid = "178,121,147,51,126,70,3,77,162,180"
dtnsim.node[72].app.size = "200,200,500,500,200,200,200,200,500,100"
# Node 73 random traffic
dtnsim.node[73].app.enable = true
dtnsim.node[73].app.bundlesNumber = "25,21,9,10,2,6,2,21,3,1"
dtnsim.node[73].app.start = "20,41,39,66,78,13,17,32,53,47"
dtnsim.node[73].app.destinationEid = "119,108,78,152,166,127,133,68,98,42"
dtnsim.node[73].app.size = "500,100,500,100,200,500,200,100,100,500"
# Node 74 random traffic
dtnsim.node[74].app.enable = true
dtnsim.node[74].app.bundlesNumber = "15,18,25,15,3,12,10,2"
dtnsim.node[74].app.start = "67,39,99,63,18,74,64,41"
dtnsim.node[74].app.destinationEid = "121,80,7,173,127,64,128,165"
dtnsim.node[74].app.size = "100,500,200,200,200,200,200,200"
# Node 75 random traffic
dtnsim.node[75].app.enable = true
dtnsim.node[75].app.bundlesNumber = "20,2,21,14,7,10,5,19,1,1"
dtnsim.node[75].app.start = "21,62,23,38,41,52,67,76,81,50"
dtnsim.node[75].app.destinationEid = "136,53,173,30,47,42,2,81,15,91"
dtnsim.node[75].app.size = "100,50,500,200,500,50,500,200,100,100"
# Node 76 random traffic
dtnsim.node[76].app.enable = true
dtnsim.node[76].app.bundlesNumber = "3,15,15,13,7,1,25,2,18,1"
dtnsim.node[76].app.start = "77,1,36,21,72,11,68,18,4,16"
dtnsim.node[76].app.destinationEid = "100,10,4,74,180,119,91,56,7,155"
dtnsim.node[76].app.size = "500,500,200,500,100,500,100,200,50,200"
# Node 77 random traffic
dtnsim.node[77].app.enable = true
dtnsim.node[77].app.bundlesNumber = "20,12,16,5,19,2,4,18,3,1"
dtnsim.node[77].app.start = "76,59,26,17,35,7,6,38,15,12"
dtnsim.node[77].app.destinationEid = "86,105,129,48,131,58,165,159,5,36"
dtnsim.node[77].app.size = "100,500,100,100,200,200,500,100,100,200"
# Node 78 random traffic
dtnsim.node[78].app.enable = true
dtnsim.node[78].app.bundlesNumber = "24,25,18,16,11,5,1"
dtnsim.node[78].app.start = "3,54,54,12,10,17,17"
dtnsim.node[78].app.destinationEid = "120,82,116,79,142,161,85"
dtnsim.node[78].app.size = "500,100,500,100,100,50,100"
# Node 79 random traffic
dtnsim.node[79].app.enable = true
dtnsim.node[79].app.bundlesNumber = "18,25,20,18,6,8,2,1,2"
dtnsim.node[79].app.start = "41,39,45,41,25,82,49,30,48"
dtnsim.node[79].app.destinationEid = "129,38,169,134,30,161,28,174,60"
dtnsim.node[79].app.size = "50,200,500,200,500,50,200,200,200"
# Node 80 random traffic
dtnsim.node[80].app.enable = true
dtnsim.node[80].app.bundlesNumber = "15,1,11,20,17,4,12,16,3,1"
dtnsim.node[80].app.start = "25,78,36,99,42,88,44,57,10,20"
dtnsim.node[80].app.destinationEid = "125,159,118,12,35,84,140,60,61,30"
dtnsim.node[80].app.size = "100,100,50,200,200,50,50,50,100,100"
# Node 81 random traffic
dtnsim.node[81].app.enable = true
dtnsim.node[81].app.bundlesNumber = "11,15,15,10,3,15,16,7,3,4,1"
dtnsim.node[81].app.start = "90,30,75,50,79,75,15,26,57,86,98"
dtnsim.node[81].app.destinationEid = "60,2,151,71,105,113,18,125,158,31,7"
dtnsim.node[81].app.size = "200,200,50,100,100,200,100,500,50,500,100"
# Node 82 random traffic
dtnsim.node[82].app.enable = true
dtnsim.node[82].app.bundlesNumber = "14,14,9,5,12,17,5,23,1"
dtnsim.node[82].app.start = "78,78,18,16,31,4,54,97,77"
dtnsim.node[82].app.destinationEid = "123,3,95,103,88,12,71,66,25"
dtnsim.node[82].app.size = "50,50,100,200,100,100,200,200,100"
# Node 83 random traffic
dtnsim.node[83].app.enable = true
dtnsim.node[83].app.bundlesNumber = "16,13,2,12,17,20,1,12,7"
dtnsim.node[83].app.start = "81,80,8,74,8,17,9,17,68"
dtnsim.node[83].app.destinationEid = "76,55,35,158,6,7,121,22,56"
dtnsim.node[83].app.size = "50,50,50,100,200,50,50,200,100"
# Node 84 random traffic
dtnsim.node[84].app.enable = true
dtnsim.node[84].app.bundlesNumber = "10,5,5,5,2,16,15,1,15,15,10,1"
dtnsim.node[84].app.start = "35,28,33,95,87,35,3,55,27,63,59,66"
dtnsim.node[84].app.destinationEid = "18,58,136,104,140,38,168,114,124,59,162,120"
dtnsim.node[84].app.size = "50,100,100,500,200,200,500,100,100,50,200,200"
# Node 85 random traffic
dtnsim.node[85].app.enable = true
dtnsim.node[85].app.bundlesNumber = "17,18,14,11,22,14,3,1"
dtnsim.node[85].app.start = "80,13,69,1,97,13,40,78"
dtnsim.node[85].app.destinationEid = "166,76,100,68,180,53,2,137"
dtnsim.node[85].app.size = "500,100,50,50,200,200,200,100"
# Node 86 random traffic
dtnsim.node[86].app.enable = true
dtnsim.node[86].app.bundlesNumber = "3,13,15,9,6,3,6,11,24,10"
dtnsim.node[86].app.start = "3,43,71,36,67,55,37,39,10,96"
dtnsim.node[86].app.destinationEid = "176,29,36,177,88,139,121,47,152,96"
dtnsim.node[86].app.size = "500,50,500,50,50,500,50,50,100,100"
# Node 87 random traffic
dtnsim.node[87].app.enable = true
dtnsim.node[87].app.bundlesNumber = "16,22,5,22,18,17"
dtnsim.node[87].app.start = "62,72,76,18,28,86"
dtnsim.node[87].app.destinationEid = "51,39,84,52,154,57"
dtnsim.node[87].app.size = "100,100,500,50,500,50"
# Node 88 random traffic
dtnsim.node[88].app.enable = true
dtnsim.node[88].app.bundlesNumber = "12,11,14,16,10,13,3,8,11,1,1"
dtnsim.node[88].app.start = "31,93,13,82,50,94,43,33,39,39,3"
dtnsim.node[88].app.destinationEid = "42,7,125,23,39,60,150,87,100,45,91"
dtnsim.node[88].app.size = "500,200,100,500,100,200,200,500,100,200,100"
# Node 89 random traffic
dtnsim.node[89].app.enable = true
dtnsim.node[89].app.bundlesNumber = "10,6,18,10,13,11,24,1,3,2,2"
dtnsim.node[89].app.start = "66,58,23,29,97,86,23,27,77,10,100"
dtnsim.node[89].app.destinationEid = "131,155,132,115,134,176,149,131,141,147,90"
dtnsim.node[89].app.size = "500,50,500,50,500,100,200,50,500,50,200"
# Node 90 random traffic
dtnsim.node[90].app.enable = true
dtnsim.node[90].app.bundlesNumber = "15,25,12,16,12,12,3,3,1,1"
dtnsim.node[90].app.start = "67,34,89,30,23,46,54,91,83,86"
dtnsim.node[90].app.destinationEid = "115,177,42,137,180,82,130,177,107,108"
dtnsim.node[90].app.size = "500,200,500,200,500,200,100,500,200,100"
# Node 91 random traffic
dtnsim.node[91].app.enable = true
dtnsim.node[91].app.bundlesNumber = "14,18,5,24,23,1,13,1,1"
dtnsim.node[91].app.start = "20,99,26,64,12,28,43,3,95"
dtnsim.node[91].app.destinationEid = "116,9,74,106,51,25,157,133,4"
dtnsim.node[91].app.size = "500,50,50,100,50,200,500,50,500"
# Node 92 random traffic
dtnsim.node[92].app.enable = true
dtnsim.node[92].app.bundlesNumber = "24,5,22,2,14,24,3,5,1"
dtnsim.node[92].app.start = "98,93,97,84,92,80,98,82,59"
dtnsim.node[92].app.destinationEid = "135,16,63,24,65,143,153,98,57"
dtnsim.node[92].app.size = "50,200,200,100,200,100,200,50,50"
# Node 93 random traffic
dtnsim.node[93].app.enable = true
dtnsim.node[93].app.bundlesNumber = "3,19,25,9,4,23,17"
dtnsim.node[93].app.start = "76,48,11,15,38,86,65"
dtnsim.node[93].app.destinationEid = "77,77,162,119,26,19,111"
dtnsim.node[93].app.size = "500,50,200,500,200,50,100"
# Node 94 random traffic