[General]
network = src.dtnsim										
repeat = 1
allow-object-stealing-on-deletion = true

# Simulation end time
sim-time-limit = 84600s

# Nodes quantity (identifiers (EiDs) matches their index, EiD=0 is ignored)			
dtnsim.nodesNumber = 180
dtnsim.node[*].icon = "satellite"

# Nodes's failure rates
dtnsim.node[*].fault.enable = true
dtnsim.node[*].fault.meanTTF = 190s
dtnsim.node[*].fault.meanTTR = 10s

dtnsim.node[*].dtn.routing = "cgrModel350"
dtnsim.node[*].dtn.printRoutingDebug = true

# --- Random Traffic Configuration ---
# Node 1 random traffic
dtnsim.node[1].app.enable = true
dtnsim.node[1].app.bundlesNumber = "20,20,13,15,12,3,4,12,1"
dtnsim.node[1].app.start = "38,43,73,78,50,59,7,2,6"
dtnsim.node[1].app.destinationEid = "68,154,156,11,124,26,73,168,176"
dtnsim.node[1].app.size = "100,50,500,100,50,100,500,200,100"
# Node 2 random traffic
dtnsim.node[2].app.enable = true
dtnsim.node[2].app.bundlesNumber = "15,17,8,18,5,18,7,3,9"
dtnsim.node[2].app.start = "91,56,61,55,88,30,100,85,81"
dtnsim.node[2].app.destinationEid = "162,17,159,1,174,64,127,120,77"
dtnsim.node[2].app.size = "500,200,200,100,500,200,500,200,50"
# Node 3 random traffic
dtnsim.node[3].app.enable = true
dtnsim.node[3].app.bundlesNumber = "6,1,2,14,12,25,5,9,1,14,3,7,1"
dtnsim.node[3].app.start = "4,48,91,69,87,47,87,21,47,43,54,6,23"
dtnsim.node[3].app.destinationEid = "34,86,94,67,55,79,147,121,135,113,160,139,114"
dtnsim.node[3].app.size = "100,200,100,500,200,200,100,500,50,100,50,500,500"
# Node 4 random traffic
dtnsim.node[4].app.enable = true
dtnsim.node[4].app.bundlesNumber = "9,16,2,20,25,14,6,6,2"
dtnsim.node[4].app.start = "97,6,30,77,23,28,79,41,99"
dtnsim.node[4].app.destinationEid = "161,134,67,122,85,35,124,47,75"
dtnsim.node[4].app.size = "500,500,500,200,200,200,200,50,50"
# Node 5 random traffic
dtnsim.node[5].app.enable = true
dtnsim.node[5].app.bundlesNumber = "2,7,23,8,25,12,7,7,4,2,1,2"
dtnsim.node[5].app.start = "29,35,1,73,18,2,13,63,27,21,78,83"
dtnsim.node[5].app.destinationEid = "16,93,110,51,164,15,46,169,169,178,157,1"
dtnsim.node[5].app.size = "200,200,200,500,50,50,100,200,50,500,50,100"
# Node 6 random traffic
dtnsim.node[6].app.enable = true
dtnsim.node[6].app.bundlesNumber = "20,2,8,14,25,24,3,4"
dtnsim.node[6].app.start = "83,91,38,34,44,91,11,19"
dtnsim.node[6].app.destinationEid = "19,124,165,66,71,87,161,10"
dtnsim.node[6].app.size = "100,200,100,200,100,200,200,100"
# Node 7 random traffic
dtnsim.node[7].app.enable = true
dtnsim.node[7].app.bundlesNumber = "25,9,1,6,18,2,17,8,4,10"
dtnsim.node[7].app.start = "77,4,25,18,29,82,74,55,63,51"
dtnsim.node[7].app.destinationEid = "163,69,93,34,13,45,150,137,162,110"
dtnsim.node[7].app.size = "100,100,50,100,200,100,50,500,200,100"
# Node 8 random traffic
dtnsim.node[8].app.enable = true
dtnsim.node[8].app.bundlesNumber = "7,25,4,19,17,21,5,2"
dtnsim.node[8].app.start = "49,91,40,14,91,80,60,47"
dtnsim.node[8].app.destinationEid = "19,163,5,102,75,93,46,119"
dtnsim.node[8].app.size = "500,100,100,200,50,500,50,50"
# Node 9 random traffic
dtnsim.node[9].app.enable = true
dtnsim.node[9].app.bundlesNumber = "9,12,16,13,14,11,21,4"
dtnsim.node[9].app.start = "78,57,10,70,37,59,83,66"
dtnsim.node[9].app.destinationEid = "151,106,159,22,164,137,175,83"
dtnsim.node[9].app.size = "100,200,100,50,50,50,50,500"
# Node 10 random traffic
dtnsim.node[10].app.enable = true
dtnsim.node[10].app.bundlesNumber = "15,17,2,9,14,14,18,8,3"
dtnsim.node[10].app.start = "23,3,24,27,66,43,85,32,21"
dtnsim.node[10].app.destinationEid = "61,114,49,79,4,24,73,110,49"
dtnsim.node[10].app.size = "50,500,100,100,200,100,100,50,100"
# Node 11 random traffic
dtnsim.node[11].app.enable = true
dtnsim.node[11].app.bundlesNumber = "15,3,9,12,10,4,7,4,9,25,1,1"
dtnsim.node[11].app.start = "59,18,23,24,88,80,96,28,23,36,66,34"
dtnsim.node[11].app.destinationEid = "2,179,128,44,145,126,13,71,77,144,64,1"
dtnsim.node[11].app.size = "100,500,500,100,200,100,200,50,500,500,500,50"
# Node 12 random traffic
dtnsim.node[12].app.enable = true
dtnsim.node[12].app.bundlesNumber = "3,8,12,21,18,20,16,1,1"
dtnsim.node[12].app.start = "43,69,35,41,86,72,4,80,10"
dtnsim.node[12].app.destinationEid = "80,46,14,177,37,162,79,84,50"
dtnsim.node[12].app.size = "500,200,50,50,100,50,200,500,50"
# Node 13 random traffic
dtnsim.node[13].app.enable = true
dtnsim.node[13].app.bundlesNumber = "11,23,19,16,9,19,3"
dtnsim.node[13].app.start = "2,45,11,27,14,46,12"
dtnsim.node[13].app.destinationEid = "145,176,162,104,31,136,127"
dtnsim.node[13].app.size = "500,50,500,500,500,50,200"
# Node 14 random traffic
dtnsim.node[14].app.enable = true
dtnsim.node[14].app.bundlesNumber = "14,7,17,4,12,13,20,3,8,2"
dtnsim.node[14].app.start = "20,52,11,98,1,44,48,62,59,72"
dtnsim.node[14].app.destinationEid = "26,150,175,152,8,90,34,132,170,157"
dtnsim.node[14].app.size = "500,50,200,500,500,50,100,200,50,200"
# Node 15 random traffic
dtnsim.node[15].app.enable = true
dtnsim.node[15].app.bundlesNumber = "8,12,2,13,3,24,5,24,9"
dtnsim.node[15].app.start = "16,9,6,80,62,49,54,82,37"
dtnsim.node[15].app.destinationEid = "73,84,45,51,157,37,90,20,80"
dtnsim.node[15].app.size = "200,100,100,500,50,50,200,200,500"
# Node 16 random traffic
dtnsim.node[16].app.enable = true
dtnsim.node[16].app.bundlesNumber = "5,19,2,22,14,6,20,2,7,3"
dtnsim.node[16].app.start = "70,84,93,55,81,65,37,17,55,44"
dtnsim.node[16].app.destinationEid = "20,179,132,23,136,150,62,87,168,88"
dtnsim.node[16].app.size = "50,100,500,500,50,50,50,500,200,500"
# Node 17 random traffic
dtnsim.node[17].app.enable = true
dtnsim.node[17].app.bundlesNumber = "16,12,7,3,5,13,7,21,13,3"
dtnsim.node[17].app.start = "64,55,17,50,65,29,38,76,76,21"
dtnsim.node[17].app.destinationEid = "16,112,81,172,158,164,111,73,46,152"
dtnsim.node[17].app.size = "500,50,500,100,100,100,100,50,500,200"
# Node 18 random traffic
dtnsim.node[18].app.enable = true
dtnsim.node[18].app.bundlesNumber = "24,16,22,24,1,7,3,1,2"
dtnsim.node[18].app.start = "61,61,61,81,66,100,63,99,30"
dtnsim.node[18].app.destinationEid = "171,85,81,81,121,173,56,4,116"
dtnsim.node[18].app.size = "500,500,200,50,200,200,200,500,50"
# Node 19 random traffic
dtnsim.node[19].app.enable = true
dtnsim.node[19].app.bundlesNumber = "9,3,23,1,14,2,13,11,9,11,4"
dtnsim.node[19].app.start = "54,35,42,89,7,15,59,16,78,19,6"
dtnsim.node[19].app.destinationEid = "141,54,43,163,62,80,50,169,152,36,171"
dtnsim.node[19].app.size = "200,500,100,500,500,50,50,50,50,50,200"
# Node 20 random traffic
dtnsim.node[20].app.enable = true
dtnsim.node[20].app.bundlesNumber = "24,18,25,23,2,7,1"
dtnsim.node[20].app.start = "62,78,82,75,46,46,4"
dtnsim.node[20].app.destinationEid = "23,177,176,56,113,70,108"
dtnsim.node[20].app.size = "100,50,500,50,100,200,50"
# Node 21 random traffic
dtnsim.node[21].app.enable = true
dtnsim.node[21].app.bundlesNumber = "6,10,2,25,22,24,11"
dtnsim.node[21].app.start = "73,68,71,30,38,22,95"
dtnsim.node[21].app.destinationEid = "147,76,120,124,167,49,36"
dtnsim.node[21].app.size = "200,100,100,100,100,50,100"
# Node 22 random traffic
dtnsim.node[22].app.enable = true
dtnsim.node[22].app.bundlesNumber = "4,5,4,9,9,14,4,3,19,25,4"
dtnsim.node[22].app.start = "40,47,38,77,13,42,63,3,99,78,93"
dtnsim.node[22].app.destinationEid = "5,8,171,161,79,176,74,28,42,118,89"
dtnsim.node[22].app.size = "50,100,50,200,50,200,100,50,100,500,50"
# Node 23 random traffic
dtnsim.node[23].app.enable = true
dtnsim.node[23].app.bundlesNumber = "8,15,23,5,4,2,11,1,10,4,1,12,2,1,1"
dtnsim.node[23].app.start = "29,31,30,35,44,100,3,12,41,3,50,50,61,71,74"
dtnsim.node[23].app.destinationEid = "5,21,119,87,166,156,158,53,156,74,40,132,27,104,90"
dtnsim.node[23].app.size = "100,200,50,50,100,200,200,100,50,500,100,100,50,50,200"
# Node 24 random traffic
dtnsim.node[24].app.enable = true
dtnsim.node[24].app.bundlesNumber = "15,1,15,12,21,11,11,6,2,2,3,1"
dtnsim.node[24].app.start = "25,74,22,98,100,71,15,51,95,77,23,99"
dtnsim.node[24].app.destinationEid = "145,126,67,62,28,156,12,5,109,135,123,154"
dtnsim.node[24].app.size = "200,500,200,200,200,50,50,500,100,200,200,100"
# Node 25 random traffic
dtnsim.node[25].app.enable = true
dtnsim.node[25].app.bundlesNumber = "18,8,2,22,15,6,3,15,8,1,1,1"
dtnsim.node[25].app.start = "3,19,92,45,49,27,25,59,44,11,51,81"
dtnsim.node[25].app.destinationEid = "46,113,33,71,125,153,76,10,35,49,108,23"
dtnsim.node[25].app.size = "100,500,500,50,50,50,50,50,500,200,100,100"
# Node 26 random traffic
dtnsim.node[26].app.enable = true
dtnsim.node[26].app.bundlesNumber = "2,12,19,25,4,21,3,4,5,3,2"
dtnsim.node[26].app.start = "10,54,15,23,59,56,87,46,24,63,59"
dtnsim.node[26].app.destinationEid = "147,90,81,138,136,131,87,13,116,5,142"
dtnsim.node[26].app.size = "100,500,100,500,50,50,100,50,500,100,100"
# Node 27 random traffic
dtnsim.node[27].app.enable = true
dtnsim.node[27].app.bundlesNumber = "2,7,5,23,16,21,9,8,6,2,1"
dtnsim.node[27].app.start = "90,93,97,87,75,94,11,64,86,47,40"
dtnsim.node[27].app.destinationEid = "5,115,60,48,145,170,130,96,25,92,123"
dtnsim.node[27].app.size = "50,50,500,50,100,500,200,500,100,200,100"
# Node 28 random traffic
dtnsim.node[28].app.enable = true
dtnsim.node[28].app.bundlesNumber = "5,2,5,23,4,19,9,2,11,10,5,3,1,1"
dtnsim.node[28].app.start = "19,39,59,3,58,11,21,6,22,84,41,60,6,11"
dtnsim.node[28].app.destinationEid = "70,169,110,173,38,1,29,100,133,30,61,91,117,70"
dtnsim.node[28].app.size = "50,100,100,200,100,500,50,200,500,50,50,100,50,100"
# Node 29 random traffic
dtnsim.node[29].app.enable = true
dtnsim.node[29].app.bundlesNumber = "10,6,19,5,20,8,21,11"
dtnsim.node[29].app.start = "41,25,51,92,56,43,58,8"
dtnsim.node[29].app.destinationEid = "119,165,25,40,104,64,116,130"
dtnsim.node[29].app.size = "500,200,200,200,500,100,200,100"
# Node 30 random traffic
dtnsim.node[30].app.enable = true
dtnsim.node[30].app.bundlesNumber = "3,6,21,22,24,19,1,1,1,1,1"
dtnsim.node[30].app.start = "99,92,90,76,22,21,58,87,75,42,1"
dtnsim.node[30].app.destinationEid = "110,134,75,112,12,92,141,20,31,167,165"
dtnsim.node[30].app.size = "50,100,50,50,200,200,500,100,50,500,100"
# Node 31 random traffic
dtnsim.node[31].app.enable = true
dtnsim.node[31].app.bundlesNumber = "18,18,13,25,5,19,2"
dtnsim.node[31].app.start = "40,96,60,27,5,72,23"
dtnsim.node[31].app.destinationEid = "150,12,23,125,96,138,25"
dtnsim.node[31].app.size = "100,200,200,100,50,500,200"
# Node 32 random traffic
dtnsim.node[32].app.enable = true
dtnsim.node[32].app.bundlesNumber = "22,12,5,22,1,11,24,3"
dtnsim.node[32].app.start = "6,75,94,56,54,78,63,60"
dtnsim.node[32].app.destinationEid = "120,31,82,49,67,109,65,109"
dtnsim.node[32].app.size = "200,200,50,500,100,50,100,100"
# Node 33 random traffic
dtnsim.node[33].app.enable = true
dtnsim.node[33].app.bundlesNumber = "1,18,20,2,14,9,10,22,2,2"
dtnsim.node[33].app.start = "97,44,3,68,22,53,35,79,93,51"
dtnsim.node[33].app.destinationEid = "149,43,111,61,23,46,175,45,75,69"
dtnsim.node[33].app.size = "500,100,50,100,200,500,200,200,200,500"
# Node 34 random traffic
dtnsim.node[34].app.enable = true
dtnsim.node[34].app.bundlesNumber = "12,5,14,25,10,17,6,1,1,9"
dtnsim.node[34].app.start = "67,89,24,14,92,11,32,78,92,82"
dtnsim.node[34].app.destinationEid = "124,30,130,80,178,136,84,51,131,168"
dtnsim.node[34].app.size = "200,200,50,100,500,50,100,50,50,100"
# Node 35 random traffic
dtnsim.node[35].app.enable = true
dtnsim.node[35].app.bundlesNumber = "21,14,13,21,22,8,1"
dtnsim.node[35].app.start = "45,73,24,53,40,48,49"
dtnsim.node[35].app.destinationEid = "77,115,26,156,21,18,70"
dtnsim.node[35].app.size = "200,200,100,200,50,100,500"
# Node 36 random traffic
dtnsim.node[36].app.enable = true
dtnsim.node[36].app.bundlesNumber = "14,24,16,14,1,3,11,12,1,4"
dtnsim.node[36].app.start = "81,84,69,37,95,25,56,15,71,68"
dtnsim.node[36].app.destinationEid = "10,160,45,9,50,57,95,148,108,141"
dtnsim.node[36].app.size = "200,50,50,200,50,50,50,200,200,50"
# Node 37 random traffic
dtnsim.node[37].app.enable = true
dtnsim.node[37].app.bundlesNumber = "12,18,12,20,13,22,3"
dtnsim.node[37].app.start = "32,75,4,58,75,77,71"
dtnsim.node[37].app.destinationEid = "98,131,135,31,73,97,146"
dtnsim.node[37].app.size = "50,50,200,100,50,200,50"
# Node 38 random traffic
dtnsim.node[38].app.enable = true
dtnsim.node[38].app.bundlesNumber = "13,23,7,15,9,1,11,1,17,1,2"
dtnsim.node[38].app.start = "3,25,86,62,52,61,34,4,60,2,59"
dtnsim.node[38].app.destinationEid = "105,14,109,117,20,146,63,53,172,77,145"
dtnsim.node[38].app.size = "200,500,200,200,50,100,500,100,50,500,500"
# Node 39 random traffic
dtnsim.node[39].app.enable = true
dtnsim.node[39].app.bundlesNumber = "22,25,1,15,12,5,6,7,4,2,1"
dtnsim.node[39].app.start = "17,31,35,50,4,26,11,73,79,46,18"
dtnsim.node[39].app.destinationEid = "141,57,145,18,108,24,13,99,10,106,99"
dtnsim.node[39].app.size = "200,500,100,100,500,50,500,200,500,50,200"
# Node 40 random traffic
dtnsim.node[40].app.enable = true
dtnsim.node[40].app.bundlesNumber = "7,4,4,25,19,21,12,7,1"
dtnsim.node[40].app.start = "21,93,86,34,67,96,10,75,38"
dtnsim.node[40].app.destinationEid = "146,1,139,54,162,73,67,42,3"
dtnsim.node[40].app.size = "200,500,100,100,100,50,100,50,50"
# Node 41 random traffic
dtnsim.node[41].app.enable = true
dtnsim.node[41].app.bundlesNumber = "10,11,9,9,11,1,8,8,16,16,1"
dtnsim.node[41].app.start = "29,64,1,90,40,31,94,46,48,54,14"
dtnsim.node[41].app.destinationEid = "32,167,168,119,150,64,110,107,2,149,77"
dtnsim.node[41].app.size = "200,200,100,50,50,50,50,50,500,200,200"
# Node 42 random traffic
dtnsim.node[42].app.enable = true
dtnsim.node[42].app.bundlesNumber = "24,17,17,11,25,6"
dtnsim.node[42].app.start = "82,89,36,14,39,71"
dtnsim.node[42].app.destinationEid = "26,68,165,90,66,39"
dtnsim.node[42].app.size = "100,500,200,100,50,50"
# Node 43 random traffic
dtnsim.node[43].app.enable = true
dtnsim.node[43].app.bundlesNumber = "6,15,21,23,8,3,7,17"
dtnsim.node[43].app.start = "41,50,48,29,98,88,33,97"
dtnsim.node[43].app.destinationEid = "47,82,23,130,30,90,159,119"
dtnsim.node[43].app.size = "200,200,50,500,200,500,200,200"
# Node 44 random traffic
dtnsim.node[44].app.enable = true
dtnsim.node[44].app.bundlesNumber = "14,1,25,19,19,6,15,1"
dtnsim.node[44].app.start = "26,55,48,18,66,41,39,7"
dtnsim.node[44].app.destinationEid = "83,24,179,168,34,120,117,125"
dtnsim.node[44].app.size = "500,500,200,200,200,500,500,50"
# Node 45 random traffic
dtnsim.node[45].app.enable = true
dtnsim.node[45].app.bundlesNumber = "21,17,2,2,22,16,16,4"
dtnsim.node[45].app.start = "51,21,96,51,76,98,38,69"
dtnsim.node[45].app.destinationEid = "54,132,156,113,114,76,85,68"
dtnsim.node[45].app.size = "200,50,100,500,200,500,50,100"
# Node 46 random traffic
dtnsim.node[46].app.enable = true
dtnsim.node[46].app.bundlesNumber = "3,5,23,2,15,3,16,25,8"
dtnsim.node[46].app.start = "2,99,76,55,24,33,56,15,39"
dtnsim.node[46].app.destinationEid = "10,106,11,103,17,33,158,103,118"
dtnsim.node[46].app.size = "200,500,100,100,50,100,200,200,200"
# Node 47 random traffic
dtnsim.node[47].app.enable = true
dtnsim.node[47].app.bundlesNumber = "19,14,7,23,11,18,4,4"
dtnsim.node[47].app.start = "90,94,31,35,26,3,43,26"
dtnsim.node[47].app.destinationEid = "173,175,92,166,154,15,121,68"
dtnsim.node[47].app.size = "500,100,200,100,500,500,50,500"
# Node 48 random traffic
dtnsim.node[48].app.enable = true
dtnsim.node[48].app.bundlesNumber = "17,19,1,3,2,12,9,22,13,2"
dtnsim.node[48].app.start = "84,97,65,98,6,23,78,58,2,70"
dtnsim.node[48].app.destinationEid = "96,126,130,103,135,47,7,52,148,97"
dtnsim.node[48].app.size = "100,50,200,100,200,100,100,200,50,50"
# Node 49 random traffic
dtnsim.node[49].app.enable = true
dtnsim.node[49].app.bundlesNumber = "13,6,2,5,22,19,13,12,4,2,2"
dtnsim.node[49].app.start = "64,45,54,29,65,100,39,10,28,86,53"
dtnsim.node[49].app.destinationEid = "174,119,100,79,109,168,46,44,36,5,87"
dtnsim.node[49].app.size = "100,200,200,50,500,100,500,500,100,500,500"
# Node 50 random traffic
dtnsim.node[50].app.enable = true
dtnsim.node[50].app.bundlesNumber = "9,10,3,21,19,9,9,3,13,2,1,1"
dtnsim.node[50].app.start = "40,26,67,83,80,57,73,89,30,8,41,93"
dtnsim.node[50].app.destinationEid = "47,19,58,47,145,169,173,130,171,67,113,13"
dtnsim.node[50].app.size = "200,500,100,100,50,200,100,200,100,500,50,200"
# Node 51 random traffic
dtnsim.node[51].app.enable = true
dtnsim.node[51].app.bundlesNumber = "23,10,12,21,17,5,12"
dtnsim.node[51].app.start = "5,48,17,75,58,42,91"
dtnsim.node[51].app.destinationEid = "150,158,62,141,141,52,127"
dtnsim.node[51].app.size = "100,200,50,100,500,100,50"
# Node 52 random traffic
dtnsim.node[52].app.enable = true
dtnsim.node[52].app.bundlesNumber = "6,23,25,3,14,10,12,1,1,3,2"
dtnsim.node[52].app.start = "55,58,7,16,11,8,51,64,57,100,19"
dtnsim.node[52].app.destinationEid = "170,24,17,16,83,166,39,74,149,111,95"
dtnsim.node[52].app.size = "100,50,200,500,500,100,500,500,50,100,100"
# Node 53 random traffic
dtnsim.node[53].app.enable = true
dtnsim.node[53].app.bundlesNumber = "22,17,12,3,2,20,3,4,2,7,1,2,2,2,1"
dtnsim.node[53].app.start = "1,81,3,95,6,23,75,52,90,5,13,41,72,21,88"
dtnsim.node[53].app.destinationEid = "94,88,64,83,79,116,177,73,29,170,105,41,171,131,20"
dtnsim.node[53].app.size = "200,50,200,500,100,500,200,100,50,200,200,200,50,100,200"
# Node 54 random traffic
dtnsim.node[54].app.enable = true
dtnsim.node[54].app.bundlesNumber = "24,25,21,6,23,1"
dtnsim.node[54].app.start = "54,50,78,74,77,74"
dtnsim.node[54].app.destinationEid = "130,89,65,36,1,43"
dtnsim.node[54].app.size = "500,500,200,200,100,200"
# Node 55 random traffic
dtnsim.node[55].app.enable = true
dtnsim.node[55].app.bundlesNumber = "25,2,8,5,6,17,18,7,10,1,1"
dtnsim.node[55].app.start = "94,77,58,47,47,18,83,68,93,51,56"
dtnsim.node[55].app.destinationEid = "149,58,120,29,20,90,169,84,32,74,146"
dtnsim.node[55].app.size = "500,50,50,100,100,50,500,200,100,50,200"
# Node 56 random traffic
dtnsim.node[56].app.enable = true
dtnsim.node[56].app.bundlesNumber = "4,2,11,4,12,25,4,7,12,7,11,1"
dtnsim.node[56].app.start = "35,28,29,64,92,27,9,55,50,78,41,41"
dtnsim.node[56].app.destinationEid = "20,82,12,116,104,127,61,14,125,129,13,139"
dtnsim.node[56].app.size = "500,200,100,100,100,100,500,500,200,500,200,500"
# Node 57 random traffic
dtnsim.node[57].app.enable = true
dtnsim.node[57].app.bundlesNumber = "9,12,25,20,12,10,2,7,3"
dtnsim.node[57].app.start = "72,79,98,59,35,8,12,16,13"
dtnsim.node[57].app.destinationEid = "98,59,141,85,18,43,71,38,15"
dtnsim.node[57].app.size = "100,100,100,200,200,500,50,200,100"
# Node 58 random traffic
dtnsim.node[58].app.enable = true
dtnsim.node[58].app.bundlesNumber = "3,6,22,12,23,5,5,9,3,4,1,5,2"
dtnsim.node[58].app.start = "82,60,37,51,49,99,19,35,22,65,44,96,81"
dtnsim.node[58].app.destinationEid = "24,121,44,69,151,45,119,50,53,34,8,28,130"
dtnsim.node[58].app.size = "200,500,200,200,100,500,200,50,100,200,50,50,100"
# Node 59 random traffic
dtnsim.node[59].app.enable = true
dtnsim.node[59].app.bundlesNumber = "16,15,10,10,23,11,3,11,1"
dtnsim.node[59].app.start = "75,91,22,7,31,76,83,49,39"
dtnsim.node[59].app.destinationEid = "20,162,179,100,175,102,19,39,172"
dtnsim.node[59].app.size = "500,100,500,100,500,200,100,200,200"
# Node 60 random traffic
dtnsim.node[60].app.enable = true
dtnsim.node[60].app.bundlesNumber = "1,2,12,5,12,8,8,7,17,22,5,1"
dtnsim.node[60].app.start = "60,44,13,77,9,9,73,18,13,5,5,45"
dtnsim.node[60].app.destinationEid = "102,48,144,38,25,52,65,141,7,78,149,127"
dtnsim.node[60].app.size = "500,100,100,50,100,100,500,500,50,200,50,200"
# Node 61 random traffic
dtnsim.node[61].app.enable = true
dtnsim.node[61].app.bundlesNumber = "6,2,7,9,5,19,21,5,21,3,1,1"
dtnsim.node[61].app.start = "87,35,70,74,43,68,42,28,83,25,43,70"
dtnsim.node[61].app.destinationEid = "33,29,1,56,27,91,26,82,162,166,37,83"
dtnsim.node[61].app.size = "500,100,100,200,500,50,50,500,500,200,200,200"
# Node 62 random traffic
dtnsim.node[62].app.enable = true
dtnsim.node[62].app.bundlesNumber = "15,19,25,23,16,2"
dtnsim.node[62].app.start = "35,16,61,85,32,28"
dtnsim.node[62].app.destinationEid = "99,139,86,70,44,21"
dtnsim.node[62].app.size = "50,100,200,50,50,500"
# Node 63 random traffic
dtnsim.node[63].app.enable = true
dtnsim.node[63].app.bundlesNumber = "3,11,5,16,6,24,15,1,17,2"
dtnsim.node[63].app.start = "74,98,5,83,13,44,20,67,74,90"
dtnsim.node[63].app.destinationEid = "93,98,3,42,177,51,44,117,165,113"
dtnsim.node[63].app.size = "200,50,50,500,500,500,500,200,200,200"
# Node 64 random traffic
dtnsim.node[64].app.enable = true
dtnsim.node[64].app.bundlesNumber = "13,5,17,5,18,9,15,6,3,7,1,1"
dtnsim.node[64].app.start = "99,40,74,84,52,75,42,11,50,75,65,11"
dtnsim.node[64].app.destinationEid = "8,9,147,97,180,118,171,152,17,96,123,143"
dtnsim.node[64].app.size = "100,200,50,50,50,100,50,50,50,50,200,500"
# Node 65 random traffic
dtnsim.node[65].app.enable = true
dtnsim.node[65].app.bundlesNumber = "13,21,19,3,19,4,20,1"
dtnsim.node[65].app.start = "29,37,90,17,47,6,32,84"
dtnsim.node[65].app.destinationEid = "96,16,141,148,3,129,41,145"
dtnsim.node[65].app.size = "500,100,200,50,500,200,100,100"
# Node 66 random traffic
dtnsim.node[66].app.enable = true
dtnsim.node[66].app.bundlesNumber = "21,8,22,20,8,3,11,3,3,1"
dtnsim.node[66].app.start = "29,13,10,71,24,8,61,38,67,18"
dtnsim.node[66].app.destinationEid = "141,56,125,162,4,3,87,155,164,10"
dtnsim.node[66].app.size = "200,50,500,500,50,100,500,500,50,200"
# Node 67 random traffic
dtnsim.node[67].app.enable = true
dtnsim.node[67].app.bundlesNumber = "3,4,18,10,9,11,16,23,6"
dtnsim.node[67].app.start = "96,40,51,67,30,33,75,86,32"
dtnsim.node[67].app.destinationEid = "92,121,11,21,18,113,135,99,63"
dtnsim.node[67].app.size = "50,50,500,500,50,500,100,100,500"
# Node 68 random traffic
dtnsim.node[68].app.enable = true
dtnsim.node[68].app.bundlesNumber = "12,11,12,22,2,16,2,15,2,5,1"
dtnsim.node[68].app.start = "48,35,23,13,51,19,34,13,12,35,34"
dtnsim.node[68].app.destinationEid = "5,87,142,99,119,140,128,59,77,25,144"
dtnsim.node[68].app.size = "500,50,100,200,200,50,500,100,500,500,200"
# Node 69 random traffic
dtnsim.node[69].app.enable = true
dtnsim.node[69].app.bundlesNumber = "15,8,11,20,4,24,4,8,5,1"
dtnsim.node[69].app.start = "26,62,78,35,72,39,24,91,56,48"
dtnsim.node[69].app.destinationEid = "27,31,58,96,36,108,23,64,10,51"
dtnsim.node[69].app.size = "50,50,200,200,500,200,100,500,50,500"
# Node 70 random traffic
dtnsim.node[70].app.enable = true
dtnsim.node[70].app.bundlesNumber = "6,21,14,15,3,12,2,16,5,2,2,2"
dtnsim.node[70].app.start = "99,13,63,43,36,15,76,33,4,22,5,47"
dtnsim.node[70].app.destinationEid = "98,32,27,4,180,22,26,57,12,8,23,83"
dtnsim.node[70].app.size = "50,50,200,50,100,500,100,50,50,500,50,200"
# Node 71 random traffic
dtnsim.node[71].app.enable = true
dtnsim.node[71].app.bundlesNumber = "2,21,8,17,20,18,2,10,2"
dtnsim.node[71].app.start = "24,20,71,89,16,71,24,26,60"
dtnsim.node[71].app.destinationEid = "159,108,18,149,146,18,36,44,108"
dtnsim.node[71].app.size = "100,500,100,100,200,100,50,50,200"
# Node 72 random traffic
dtnsim.node[72].app.enable = true
dtnsim.node[72].app.bundlesNumber = "21,21,15,25,1,17"
dtnsim.node[72].app.start = "25,93,63,47,68,61"
dtnsim.node[72].app.destinationEid = "135,146,144,25,18,61"
dtnsim.node[72].app.size = "500,200,100,100,500,100"
# Node 73 random traffic
dtnsim.node[73].app.enable = true
dtnsim.node[73].app.bundlesNumber = "7,19,15,22,19,10,2,4,2"
dtnsim.node[73].app.start = "9,35,43,67,31,57,99,71,47"
dtnsim.node[73].app.destinationEid = "56,108,70,114,148,50,129,153,62"
dtnsim.node[73].app.size = "50,500,200,200,100,100,50,200,100"
# Node 74 random traffic
dtnsim.node[74].app.enable = true
dtnsim.node[74].app.bundlesNumber = "25,21,13,12,1,23,4,1"
dtnsim.node[74].app.start = "19,28,96,80,35,38,62,4"
dtnsim.node[74].app.destinationEid = "16,149,139,104,133,167,50,32"
dtnsim.node[74].app.size = "50,200,200,50,500,200,50,500"
# Node 75 random traffic
dtnsim.node[75].app.enable = true
dtnsim.node[75].app.bundlesNumber = "1,25,4,24,17,3,18,2,3,3"
dtnsim.node[75].app.start = "80,4,46,14,39,85,95,50,24,84"
dtnsim.node[75].app.destinationEid = "26,54,46,32,39,119,176,159,131,5"
dtnsim.node[75].app.size = "100,50,50,500,100,100,200,200,500,200"
# Node 76 random traffic
dtnsim.node[76].app.enable = true
dtnsim.node[76].app.bundlesNumber = "25,19,9,2,1,6,12,8,17,1"
dtnsim.node[76].app.start = "29,29,83,38,63,94,38,25,12,74"
dtnsim.node[76].app.destinationEid = "57,50,98,94,84,2,53,67,110,170"
dtnsim.node[76].app.size = "100,100,100,50,100,50,500,100,100,100"
# Node 77 random traffic
dtnsim.node[77].app.enable = true
dtnsim.node[77].app.bundlesNumber = "11,7,4,25,1,8,13,21,4,3,3"
dtnsim.node[77].app.start = "99,14,98,49,31,39,35,38,52,88,3"
dtnsim.node[77].app.destinationEid = "23,82,73,17,11,38,91,85,154,46,18"
dtnsim.node[77].app.size = "500,200,100,100,500,50,100,100,500,500,500"
# Node 78 random traffic
dtnsim.node[78].app.enable = true
dtnsim.node[78].app.bundlesNumber = "23,11,22,18,7,2,2,10,4,1"
dtnsim.node[78].app.start = "84,81,78,82,82,79,50,98,33,92"
dtnsim.node[78].app.destinationEid = "70,179,101,50,18,171,27,169,41,52"
dtnsim.node[78].app.size = "500,50,500,500,500,500,100,50,500,50"
# Node 79 random traffic
dtnsim.node[79].app.enable = true
dtnsim.node[79].app.bundlesNumber = "23,10,18,19,25,3,2"
dtnsim.node[79].app.start = "58,7,15,77,28,23,27"
dtnsim.node[79].app.destinationEid = "11,144,38,23,98,78,171"
dtnsim.node[79].app.size = "200,50,500,200,50,100,100"
# Node 80 random traffic
dtnsim.node[80].app.enable = true
dtnsim.node[80].app.bundlesNumber = "5,11,20,17,2,25,2,4,3,4,6,1"
dtnsim.node[80].app.start = "41,76,65,30,46,91,26,29,97,42,32,16"
dtnsim.node[80].app.destinationEid = "6,79,180,50,175,106,62,127,5,162,79,147"
dtnsim.node[80].app.size = "50,100,100,200,500,500,200,200,500,500,50,200"
# Node 81 random traffic
dtnsim.node[81].app.enable = true
dtnsim.node[81].app.bundlesNumber = "12,12,3,5,4,1,5,21,18,4,2,10,2,1"
dtnsim.node[81].app.start = "32,86,67,12,18,63,26,53,9,8,4,5,61,27"
dtnsim.node[81].app.destinationEid = "117,108,79,28,141,76,61,123,19,37,94,31,102,95"
dtnsim.node[81].app.size = "500,200,200,500,200,50,200,100,100,200,200,50,500,200"
# Node 82 random traffic
dtnsim.node[82].app.enable = true
dtnsim.node[82].app.bundlesNumber = "25,10,11,8,11,6,13,2,1,12,1"
dtnsim.node[82].app.start = "32,80,70,5,52,39,39,35,8,65,63"
dtnsim.node[82].app.destinationEid = "16,85,120,111,96,179,5,40,162,73,73"
dtnsim.node[82].app.size = "50,100,500,50,500,50,50,200,50,100,100"
# Node 83 random traffic
dtnsim.node[83].app.enable = true
dtnsim.node[83].app.bundlesNumber = "6,1,1,5,12,12,11,5,21,9,11,1,5"
dtnsim.node[83].app.start = "83,92,17,26,55,41,86,50,42,20,47,36,98"
dtnsim.node[83].app.destinationEid = "155,103,5,84,99,146,28,176,6,66,154,117,174"
dtnsim.node[83].app.size = "50,100,50,50,50,100,500,500,200,500,50,50,100"
# Node 84 random traffic
dtnsim.node[84].app.enable = true
dtnsim.node[84].app.bundlesNumber = "18,16,22,3,6,12,15,4,3,1"
dtnsim.node[84].app.start = "30,58,52,14,52,31,94,10,48,81"
dtnsim.node[84].app.destinationEid = "50,171,30,61,81,151,154,96,138,150"
dtnsim.node[84].app.size = "100,50,500,50,200,50,100,50,100,100"
# Node 85 random traffic
dtnsim.node[85].app.enable = true
dtnsim.node[85].app.bundlesNumber = "21,1,13,24,19,19,3"
dtnsim.node[85].app.start = "99,19,89,46,60,7,100"
dtnsim.node[85].app.destinationEid = "134,162,143,1,144,119,53"
dtnsim.node[85].app.size = "200,500,100,100,100,500,50"
# Node 86 random traffic
dtnsim.node[86].app.enable = true
dtnsim.node[86].app.bundlesNumber = "19,9,12,25,10,23,1,1"
dtnsim.node[86].app.start = "45,42,91,81,78,63,76,53"
dtnsim.node[86].app.destinationEid = "90,104,82,144,102,8,90,149"
dtnsim.node[86].app.size = "500,100,100,100,500,100,100,200"
# Node 87 random traffic
dtnsim.node[87].app.enable = true
dtnsim.node[87].app.bundlesNumber = "4,24,13,12,6,8,8,12,12,1"
dtnsim.node[87].app.start = "56,46,33,56,78,27,1,16,84,95"
dtnsim.node[87].app.destinationEid = "20,70,17,3,105,102,116,40,41,91"
dtnsim.node[87].app.size = "500,500,500,50,500,100,200,100,200,500"
# Node 88 random traffic
dtnsim.node[88].app.enable = true
dtnsim.node[88].app.bundlesNumber = "16,21,10,24,15,9,3,2"
dtnsim.node[88].app.start = "17,14,29,20,19,71,38,59"
dtnsim.node[88].app.destinationEid = "177,99,11,23,71,79,108,110"
dtnsim.node[88].app.size = "500,100,50,50,200,500,200,100"
# Node 89 random traffic
dtnsim.node[89].app.enable = true
dtnsim.node[89].app.bundlesNumber = "2,1,15,18,22,16,25,1"
dtnsim.node[89].app.start = "92,100,19,17,99,55,56,27"
dtnsim.node[89].app.destinationEid = "125,46,13,109,77,160,109,119"
dtnsim.node[89].app.size = "200,100,500,50,50,200,100,50"
# Node 90 random traffic
dtnsim.node[90].app.enable = true
dtnsim.node[90].app.bundlesNumber = "3,2,4,14,16,7,13,20,10,3,3,5"
dtnsim.node[90].app.start = "93,15,46,34,28,39,61,62,47,17,44,90"
dtnsim.node[90].app.destinationEid = "178,164,14,180,43,46,155,134,31,97,173,24"
dtnsim.node[90].app.size = "500,100,100,100,500,500,500,50,50,200,200,100"
# Node 91 random traffic
dtnsim.node[91].app.enable = true
dtnsim.node[91].app.bundlesNumber = "11,7,8,15,25,5,17,7,2,3"
dtnsim.node[91].app.start = "100,36,85,23,89,28,40,7,77,62"
dtnsim.node[91].app.destinationEid = "100,79,107,1,5,137,140,65,169,9"
dtnsim.node[91].app.size = "200,500,100,50,50,500,100,100,100,500"
# Node 92 random traffic
dtnsim.node[92].app.enable = true
dtnsim.node[92].app.bundlesNumber = "7,19,15,2,11,8,11,2,21,4"
dtnsim.node[92].app.start = "4,51,1,34,65,62,57,75,49,8"
dtnsim.node[92].app.destinationEid = "31,103,55,63,179,124,61,73,103,70"
dtnsim.node[92].app.size = "200,500,50,50,50,50,200,100,100,200"
# Node 93 random traffic
dtnsim.node[93].app.enable = true
dtnsim.node[93].app.bundlesNumber = "4,25,24,18,15,10,3,1"
dtnsim.node[93].app.start = "30,98,85,82,96,25,76,35"
dtnsim.node[93].app.destinationEid = "103,130,1,103,98,127,28,43"
dtnsim.node[93].app.size = "100,50,500,500,500,500,100,200"