[General]
network = src.dtnsim										
repeat = 1
allow-object-stealing-on-deletion = true

# Simulation end time
sim-time-limit = 84600s

# Nodes quantity (identifiers (EiDs) matches their index, EiD=0 is ignored)			
dtnsim.nodesNumber = 240
dtnsim.node[*].icon = "satellite"

# Nodes's failure rates
dtnsim.node[*].fault.enable = true
dtnsim.node[*].fault.meanTTF = 90s
dtnsim.node[*].fault.meanTTR = 10s

# Mobility
dtnsim.node[*].hasMobility = true
dtnsim.node[*].norad.satIndex = parentIndex()
dtnsim.node[*].norad.satName = "sat"
**.updateInterval = 20s
**.numOfSats = 240
**.satPerPlane = 12
**.altitude = 540
**.planes = 20
**.phaseOffset = 11

dtnsim.node[*].dtn.routing = "antop"
dtnsim.node[*].dtn.printRoutingDebug = true

# --- Random Traffic Configuration ---
# Node 1 random conversational traffic
dtnsim.node[1].app.enable = true
dtnsim.node[1].app.bundlesNumber = "4,1,4,3,1,4,5,3,2,3,4,1,5,5,3,4,3,2,1,4,5,1,1,2,2,1,3,4,2,2,4,4,3,3,2,4,4,5,3,4,3,4,3,5,2,4,2,2,3,4,4,3,2,5,2,4,4,4,2,3,2,2,4,1,2,4,3,3,1,1,3,3,3,2,4,2,3,1,1,2,1,4,2,5,1,5,3,4,2,4,5,5,5,5,5,2,1,1,2,3"
dtnsim.node[1].app.start = "44,69,2,22,94,85,74,98,57,10,65,59,76,90,25,87,44,13,95,76,59,25,46,15,10,30,58,35,37,48,14,4,86,31,89,19,45,57,95,63,100,24,45,96,42,5,92,45,19,33,6,42,70,47,25,24,77,1,100,97,24,52,95,72,39,23,18,21,20,50,84,1,30,15,58,6,54,36,80,44,92,84,73,80,12,21,96,24,69,29,98,26,57,62,46,28,4,42,53,92"
dtnsim.node[1].app.destinationEid = "2,2,2,2,2,2,2,2,2,2,2,2,2,2,2,2,2,2,2,2,2,2,2,2,2,2,2,2,2,2,2,2,2,2,2,2,2,2,2,2,2,2,2,2,2,2,2,2,2,2,2,2,2,2,2,2,2,2,2,2,2,2,2,2,2,2,2,2,2,2,2,2,2,2,2,2,2,2,2,2,2,2,2,2,2,2,2,2,2,2,2,2,2,2,2,2,2,2,2,2"
dtnsim.node[1].app.size = "100,50,200,50,500,200,500,200,50,50,50,200,200,100,200,200,100,50,200,50,200,200,500,500,100,100,50,100,50,100,200,200,500,50,50,500,100,200,500,200,50,500,200,50,100,50,100,100,50,50,100,500,100,100,50,50,50,50,200,100,200,50,200,50,100,200,100,200,500,200,100,50,100,200,50,100,100,50,100,200,500,100,200,50,100,100,500,500,200,50,500,50,500,50,100,200,100,200,100,500"
# Node 2 random conversational traffic
dtnsim.node[2].app.enable = true
dtnsim.node[2].app.bundlesNumber = "5,5,5,1,3,5,4,4,2,5,3,5,2,5,5,2,5,4,4,4,3,3,5,3,4,2,5,1,4,1,1,3,2,1,3,3,4,2,1,3,4,5,5,3,1,4,3,3,1,5,2,5,5,3,5,3,2,3,4,3,2,2,5,4,4,3,4,2,2,2,4,1,5,4,1,3,4,1,2,1,4,1,3,1,3,1,1,5,1,5,2,1,1,1,1,1,1,2,5,2"
dtnsim.node[2].app.start = "8,90,99,59,71,60,92,21,99,29,22,18,50,10,41,90,61,98,71,15,97,46,40,48,49,35,27,87,5,100,62,98,73,28,16,63,14,62,82,90,88,19,100,72,30,27,53,8,52,100,48,29,37,7,52,44,48,1,52,64,7,25,75,80,11,100,76,86,9,77,30,86,39,24,36,67,74,46,90,65,82,75,68,22,25,82,16,62,82,12,76,3,94,83,7,3,15,49,10,29"
dtnsim.node[2].app.destinationEid = "1,1,1,1,1,1,1,1,1,1,1,1,1,1,1,1,1,1,1,1,1,1,1,1,1,1,1,1,1,1,1,1,1,1,1,1,1,1,1,1,1,1,1,1,1,1,1,1,1,1,3,3,3,3,3,3,3,3,3,3,3,3,3,3,3,3,3,3,3,3,3,3,3,3,3,3,3,3,3,3,3,3,3,3,3,3,3,3,3,3,3,3,3,3,3,3,3,3,3,3"
dtnsim.node[2].app.size = "200,50,500,100,500,200,50,100,100,100,50,50,100,200,500,200,50,100,50,500,500,50,50,500,200,100,200,500,50,50,200,500,200,100,200,200,100,500,200,100,200,500,50,100,200,500,50,500,200,500,200,50,500,100,100,100,100,100,50,500,500,100,50,50,200,500,500,500,200,50,200,500,100,100,50,200,50,100,500,50,100,500,200,100,50,100,50,500,50,200,500,50,200,500,500,50,50,100,500,100"
# Node 3 random conversational traffic
dtnsim.node[3].app.enable = true
dtnsim.node[3].app.bundlesNumber = "2,4,3,1,1,3,5,5,2,5,3,2,1,4,2,1,2,2,3,5,5,4,5,4,1,5,1,2,3,5,3,2,4,1,4,3,3,5,2,5,2,2,3,4,5,3,1,5,2,2,5,1,3,3,4,4,4,2,4,3,2,5,3,3,2,2,5,5,1,2,4,4,2,4,4,5,5,4,2,1,2,1,5,5,3,1,5,5,3,3,2,4,3,5,3,3,4,1,1,1"
dtnsim.node[3].app.start = "57,39,17,52,2,53,73,100,85,82,28,98,71,85,77,28,92,21,72,85,22,78,11,98,92,16,8,54,19,39,89,58,93,30,89,78,88,79,89,48,73,7,93,58,42,43,52,28,51,56,37,30,63,98,89,74,57,80,22,100,51,16,48,20,48,29,64,29,81,16,54,93,16,97,37,8,77,7,52,3,95,90,22,4,66,36,34,27,63,35,45,77,18,78,82,38,48,66,68,99"
dtnsim.node[3].app.destinationEid = "2,2,2,2,2,2,2,2,2,2,2,2,2,2,2,2,2,2,2,2,2,2,2,2,2,2,2,2,2,2,4,4,4,4,4,4,4,4,4,4,4,4,4,4,4,4,4,4,4,4,4,4,4,4,4,4,4,4,4,4,4,4,4,4,4,4,4,4,4,4,4,4,4,4,4,4,4,4,4,4,4,4,4,4,4,4,4,4,4,4,4,4,4,4,4,4,4,4,4,4"
dtnsim.node[3].app.size = "50,200,100,100,500,50,200,500,200,50,50,500,100,50,500,200,500,100,100,200,200,500,50,100,200,500,200,100,500,50,100,50,100,500,200,200,200,200,500,50,100,100,100,100,200,100,200,200,100,50,500,50,200,500,100,100,50,500,50,100,500,200,50,500,200,200,100,50,100,200,200,200,100,200,200,200,500,200,100,100,100,50,50,100,200,100,100,500,200,500,50,200,50,50,500,200,200,100,200,200"
# Node 4 random conversational traffic
dtnsim.node[4].app.enable = true
dtnsim.node[4].app.bundlesNumber = "3,4,4,4,2,3,5,3,1,5,1,1,5,2,4,1,1,1,2,2,1,4,4,5,4,4,3,5,3,4,1,4,4,1,5,1,4,2,4,2,5,4,4,5,2,4,1,3,4,5,1,4,5,2,3,3,1,5,5,2,4,1,3,4,4,4,1,2,5,5,1,3,1,3,5,4,5,3,5,2,4,3,1,5,1,4,5,1,4,4,5,1,3,5,5,3,2,3,5,5"
dtnsim.node[4].app.start = "59,99,39,92,86,91,86,99,51,78,12,63,43,47,55,32,56,65,65,88,25,24,55,27,56,37,85,24,22,98,87,13,12,96,9,68,72,39,46,84,86,84,44,73,74,96,6,29,100,57,39,53,65,74,58,12,60,27,31,83,90,56,100,28,54,16,5,92,34,95,35,53,10,9,44,58,85,4,19,22,19,50,65,64,40,84,92,64,86,100,78,96,57,39,78,68,3,13,76,23"
dtnsim.node[4].app.destinationEid = "3,3,3,3,3,3,3,3,3,3,3,3,3,3,3,3,3,3,3,3,3,3,3,3,3,3,3,3,3,3,3,3,3,3,3,3,3,3,3,3,3,3,3,3,3,5,5,5,5,5,5,5,5,5,5,5,5,5,5,5,5,5,5,5,5,5,5,5,5,5,5,5,5,5,5,5,5,5,5,5,5,5,5,5,5,5,5,5,5,5,5,5,5,5,5,5,5,5,5,5"
dtnsim.node[4].app.size = "200,500,200,100,200,100,100,500,100,50,500,100,200,100,200,100,100,500,100,500,200,50,50,500,500,500,200,200,50,200,200,500,500,100,100,50,200,500,50,100,100,100,500,50,200,500,200,100,200,500,100,50,50,200,200,500,50,50,50,500,100,500,500,500,200,200,500,200,500,500,100,100,500,50,100,200,200,50,50,500,100,100,50,100,200,100,500,500,50,100,200,50,500,100,500,500,200,50,100,500"
# Node 5 random conversational traffic
dtnsim.node[5].app.enable = true
dtnsim.node[5].app.bundlesNumber = "2,2,3,2,1,2,5,5,4,1,2,2,5,1,1,5,4,4,1,4,4,4,4,2,3,2,1,1,4,1,3,1,3,2,3,2,4,3,1,3,5,2,1,5,1,3,5,3,2,4,2,2,3,5,3,4,3,3,1,1,1,4,4,5,4,2,4,5,1,3,3,3,2,3,1,2,5,2,3,5,2,4,4,2,4,5,4,3,5,5,3,5,2,2,2,2,4,5,1,1"
dtnsim.node[5].app.start = "100,10,100,67,40,68,82,62,20,61,35,91,100,100,55,24,38,37,56,18,10,91,25,26,55,65,88,93,68,100,62,83,76,9,77,31,2,86,46,95,80,61,55,46,18,41,15,62,28,92,19,3,40,99,70,73,62,92,56,72,69,94,79,71,11,53,40,62,97,38,18,66,9,11,76,93,9,61,93,64,77,22,2,89,7,13,77,81,42,87,78,87,44,87,44,62,69,10,86,52"
dtnsim.node[5].app.destinationEid = "4,4,4,4,4,4,4,4,4,4,4,4,4,4,4,4,4,4,4,4,4,4,4,4,4,4,4,4,4,4,4,4,4,4,4,4,6,6,6,6,6,6,6,6,6,6,6,6,6,6,6,6,6,6,6,6,6,6,6,6,6,6,6,6,6,6,6,6,6,6,6,6,6,6,6,6,6,6,6,6,6,6,6,6,6,6,6,6,6,6,6,6,6,6,6,6,6,6,6,6"
dtnsim.node[5].app.size = "500,50,200,500,500,200,50,500,500,50,500,50,100,500,50,200,200,100,100,500,50,200,100,500,50,100,500,200,50,200,50,200,50,100,100,100,500,500,500,50,50,50,50,100,200,200,100,100,500,100,50,500,100,200,100,100,500,50,500,100,100,50,200,500,500,200,200,50,50,500,100,50,500,50,500,500,200,50,200,50,500,500,200,200,500,200,100,500,500,200,200,100,50,500,200,500,500,100,500,100"
# Node 6 random conversational traffic
dtnsim.node[6].app.enable = true
dtnsim.node[6].app.bundlesNumber = "3,2,5,3,3,5,5,5,1,1,3,5,3,2,1,4,2,4,3,1,2,5,3,4,2,3,5,3,1,5,2,1,3,3,4,2,2,2,3,1,2,4,1,4,4,3,1,4,1,3,1,4,3,5,4,1,3,4,2,2,1,1,2,2,5,2,5,2,5,5,4,4,4,2,2,1,2,4,3,5,5,1,1,1,4,1,2,2,3,2,1,1,4,1,1,3,4,3,5,2"
dtnsim.node[6].app.start = "10,91,55,84,67,50,26,24,64,25,43,68,98,79,99,73,63,70,40,74,15,79,99,62,74,32,97,79,87,49,92,89,52,90,46,70,71,20,53,93,98,2,86,21,5,86,63,29,5,56,95,67,62,77,21,62,68,64,53,16,61,27,27,54,81,96,76,73,42,100,26,37,77,38,89,99,80,3,77,57,92,26,10,9,3,12,61,36,17,2,99,60,12,61,99,18,60,15,89,44"
dtnsim.node[6].app.destinationEid = "5,5,5,5,5,5,5,5,5,5,5,5,5,5,5,5,5,5,5,5,5,5,5,5,5,5,5,5,5,5,5,5,5,5,5,5,5,5,5,7,7,7,7,7,7,7,7,7,7,7,7,7,7,7,7,7,7,7,7,7,7,7,7,7,7,7,7,7,7,7,7,7,7,7,7,7,7,7,7,7,7,7,7,7,7,7,7,7,7,7,7,7,7,7,7,7,7,7,7,7"
dtnsim.node[6].app.size = "50,500,200,200,200,500,50,50,50,200,200,200,100,100,200,100,50,50,100,200,500,100,500,500,500,50,200,50,50,100,200,50,500,100,100,50,200,200,100,50,50,500,50,200,100,50,100,50,500,100,50,50,500,50,100,200,200,100,100,50,500,500,500,500,500,100,500,50,100,50,50,200,50,200,50,50,200,200,50,100,200,100,100,100,500,200,100,50,50,50,500,200,500,500,50,500,100,100,200,200"
# Node 7 random conversational traffic
dtnsim.node[7].app.enable = true
dtnsim.node[7].app.bundlesNumber = "4,4,1,4,1,5,5,1,2,3,2,1,2,5,1,2,1,5,3,5,3,4,4,2,4,5,1,1,5,3,1,2,5,1,1,2,3,1,4,2,4,1,4,2,3,2,1,4,5,4,1,3,3,1,2,4,5,5,1,3,3,3,3,2,4,4,1,3,5,1,4,3,4,4,2,1,2,3,1,2,2,5,2,4,3,3,2,5,4,2,2,5,2,1,4,1,2,2,3,5"
dtnsim.node[7].app.start = "100,88,27,89,31,14,65,96,73,81,28,65,68,54,23,62,30,61,88,77,100,81,45,96,84,64,18,5,15,70,40,3,100,67,21,100,23,70,16,43,75,74,93,29,56,17,23,85,95,36,57,28,56,81,43,71,86,63,34,73,31,82,95,94,19,6,26,51,29,74,55,74,83,77,59,94,59,84,48,8,78,55,90,71,67,96,27,21,3,72,12,22,84,93,71,72,48,6,77,25"
dtnsim.node[7].app.destinationEid = "6,6,6,6,6,6,6,6,6,6,6,6,6,6,6,6,6,6,6,6,6,6,6,6,6,6,6,6,6,6,6,6,6,6,6,6,6,6,6,8,8,8,8,8,8,8,8,8,8,8,8,8,8,8,8,8,8,8,8,8,8,8,8,8,8,8,8,8,8,8,8,8,8,8,8,8,8,8,8,8,8,8,8,8,8,8,8,8,8,8,8,8,8,8,8,8,8,8,8,8"
dtnsim.node[7].app.size = "50,50,500,500,500,100,500,500,100,100,50,500,50,500,100,50,200,200,50,200,100,50,200,500,50,500,200,50,500,200,200,500,100,200,50,50,500,500,200,500,500,200,200,100,200,100,200,500,200,500,500,200,500,500,50,500,50,200,100,50,100,200,200,100,50,200,100,50,200,500,500,100,200,200,50,50,50,500,100,50,100,100,100,500,500,500,500,50,50,200,50,50,50,100,50,100,100,100,50,500"
# Node 8 random conversational traffic
dtnsim.node[8].app.enable = true
dtnsim.node[8].app.bundlesNumber = "1,3,1,1,1,5,4,3,3,3,2,5,4,2,1,2,1,5,5,3,3,4,2,2,5,4,4,5,4,5,5,3,4,1,5,2,1,2,5,1,4,1,5,2,1,3,2,4,5,3,4,2,2,3,3,5,2,2,5,5,4,1,4,5,4,2,1,4,2,1,2,2,5,2,5,3,5,4,5,1,1,4,4,3,3,4,5,3,3,3,4,3,3,2,1,4,2,2,5,1"
dtnsim.node[8].app.start = "78,78,97,21,29,87,99,44,65,62,79,95,64,44,82,41,25,8,30,35,63,87,60,99,65,92,58,17,59,77,33,13,80,94,94,78,79,80,33,5,52,61,73,12,77,46,14,73,51,6,98,71,48,76,37,80,92,31,59,99,41,78,61,47,20,60,39,44,11,3,4,67,16,42,8,98,97,60,33,62,60,63,54,44,80,3,76,14,15,92,82,72,1,36,74,58,68,90,72,87"
dtnsim.node[8].app.destinationEid = "7,7,7,7,7,7,7,7,7,7,7,7,7,7,7,7,7,7,7,7,7,7,7,7,7,7,7,7,7,7,7,7,7,7,7,7,7,7,7,9,9,9,9,9,9,9,9,9,9,9,9,9,9,9,9,9,9,9,9,9,9,9,9,9,9,9,9,9,9,9,9,9,9,9,9,9,9,9,9,9,9,9,9,9,9,9,9,9,9,9,9,9,9,9,9,9,9,9,9,9"
dtnsim.node[8].app.size = "50,100,50,100,500,100,200,100,500,200,200,100,100,200,100,500,500,200,50,100,200,100,100,200,100,200,50,200,100,50,200,50,500,200,100,500,100,500,200,50,200,100,500,50,50,500,500,100,500,100,100,200,50,50,100,500,50,50,200,100,500,50,100,50,200,50,500,50,50,200,500,200,200,100,100,100,50,100,100,50,100,50,200,100,100,50,50,50,500,200,100,200,50,50,200,50,200,50,500,50"
# Node 9 random conversational traffic
dtnsim.node[9].app.enable = true
dtnsim.node[9].app.bundlesNumber = "3,5,1,4,5,2,5,3,4,2,2,2,5,3,3,1,4,5,4,2,4,1,1,2,4,4,2,3,4,2,4,5,4,5,3,4,4,3,3,5,3,4,1,2,4,2,1,4,4,2,2,4,2,3,4,4,3,2,5,1,3,1,2,2,4,2,4,5,4,3,2,4,1,5,4,1,5,4,5,3,5,3,5,1,4,4,3,5,1,2,4,1,2,2,4,4,2,1,5,2"
dtnsim.node[9].app.start = "65,83,17,51,21,58,100,74,85,41,86,35,100,42,69,28,65,41,14,5,77,26,44,99,70,42,69,72,57,47,89,80,23,93,6,43,75,89,66,63,73,31,2,29,7,87,36,39,19,21,35,24,33,2,18,9,4,97,44,65,85,38,84,87,2,61,85,45,41,68,72,26,50,86,13,67,18,22,22,87,18,80,96,39,85,89,62,84,70,40,93,85,86,35,98,64,97,26,95,27"
dtnsim.node[9].app.destinationEid = "8,8,8,8,8,8,8,8,8,8,8,8,8,8,8,8,8,8,8,8,8,8,8,8,8,8,8,8,8,8,8,8,8,8,8,8,8,8,10,10,10,10,10,10,10,10,10,10,10,10,10,10,10,10,10,10,10,10,10,10,10,10,10,10,10,10,10,10,10,10,10,10,10,10,10,10,10,10,10,10,10,10,10,10,10,10,10,10,10,10,10,10,10,10,10,10,10,10,10,10"
dtnsim.node[9].app.size = "500,500,100,50,100,50,200,50,100,200,200,100,500,100,100,50,100,50,50,200,100,200,500,200,50,50,500,50,500,200,100,50,100,200,100,500,200,200,50,100,500,100,500,200,500,50,50,500,200,100,200,200,200,50,50,100,500,200,500,50,500,50,50,500,50,500,50,200,50,50,50,200,50,100,500,100,200,100,100,100,50,200,200,500,100,200,50,500,200,500,100,50,50,500,100,200,500,50,500,100"
# Node 10 random conversational traffic
dtnsim.node[10].app.enable = true
dtnsim.node[10].app.bundlesNumber = "3,2,4,1,1,4,3,1,2,5,1,4,1,4,2,2,2,5,3,4,2,2,3,2,4,1,1,1,4,4,4,3,3,2,3,3,1,3,3,4,4,3,1,2,2,2,1,2,2,2,4,3,2,4,4,1,3,5,2,1,4,4,3,5,5,3,2,5,3,5,1,1,4,2,3,2,4,3,5,5,3,5,2,1,4,5,4,5,1,1,1,2,5,2,3,5,1,5,2,2"
dtnsim.node[10].app.start = "67,32,34,95,19,19,7,99,54,89,86,63,43,72,30,52,93,16,69,24,25,100,87,98,72,86,78,44,97,87,43,74,98,97,29,42,68,87,12,3,51,81,78,96,32,98,39,35,14,99,23,16,33,38,22,93,53,25,71,33,62,18,81,46,94,100,61,99,13,38,56,19,62,37,39,51,79,14,76,50,38,7,3,99,12,57,45,70,22,44,4,19,51,59,84,65,84,63,44,4"
dtnsim.node[10].app.destinationEid = "9,9,9,9,9,9,9,9,9,9,9,9,9,9,9,9,9,9,9,9,9,9,9,9,9,9,9,9,9,9,9,9,9,9,9,11,11,11,11,11,11,11,11,11,11,11,11,11,11,11,11,11,11,11,11,11,11,11,11,11,11,11,11,11,11,11,11,11,11,11,11,11,11,11,11,11,11,11,11,11,11,11,11,11,11,11,11,11,11,11,11,11,11,11,11,11,11,11,11,11"
dtnsim.node[10].app.size = "500,50,200,200,200,50,100,500,200,100,100,200,100,100,200,100,100,200,50,200,200,50,200,100,100,200,500,200,500,200,500,500,50,500,500,100,200,500,100,200,100,100,200,100,200,50,200,100,100,200,50,200,50,50,100,50,100,50,500,50,100,500,200,100,500,100,100,50,200,50,50,200,200,100,100,100,100,100,200,100,200,100,50,200,200,200,500,50,50,50,200,200,100,50,50,100,50,100,500,100"
# Node 11 random conversational traffic
dtnsim.node[11].app.enable = true
dtnsim.node[11].app.bundlesNumber = "4,5,2,3,3,2,3,5,1,4,5,5,5,1,5,2,2,4,1,4,2,4,2,3,3,2,4,4,5,3,2,5,3,4,1,4,2,2,1,1,4,1,1,2,5,3,2,2,5,2,2,3,4,4,2,1,3,5,1,5,3,1,4,3,1,2,5,1,1,3,5,5,5,2,4,3,2,1,4,2,5,2,3,5,4,1,5,2,3,1,3,5,5,5,3,5,3,4,5,1"
dtnsim.node[11].app.start = "45,70,56,91,100,100,47,15,24,42,42,62,32,76,43,82,52,100,100,68,100,43,66,22,68,48,61,89,15,79,52,45,8,7,100,21,24,51,9,52,86,53,9,89,73,57,88,38,96,79,56,91,2,63,88,70,99,64,22,83,10,66,31,67,51,63,18,2,92,9,22,99,16,6,31,49,61,20,42,30,41,67,32,43,46,25,17,47,14,77,75,50,12,55,51,72,99,43,6,94"
dtnsim.node[11].app.destinationEid = "10,10,10,10,10,10,10,10,10,10,10,10,10,10,10,10,10,10,10,10,10,10,10,10,10,10,10,10,10,10,10,10,10,10,10,10,10,10,10,10,10,10,10,12,12,12,12,12,12,12,12,12,12,12,12,12,12,12,12,12,12,12,12,12,12,12,12,12,12,12,12,12,12,12,12,12,12,12,12,12,12,12,12,12,12,12,12,12,12,12,12,12,12,12,12,12,12,12,12,12"
dtnsim.node[11].app.size = "500,200,500,500,50,50,200,100,500,100,200,100,50,500,100,500,200,100,50,200,500,50,500,100,200,50,200,200,200,50,200,500,200,200,100,200,100,200,500,500,100,100,100,100,500,100,200,200,200,500,100,100,500,50,500,500,500,100,50,100,200,100,500,500,100,500,500,500,100,200,500,200,200,50,200,200,100,50,50,500,50,50,100,50,200,500,50,500,500,50,50,500,200,100,50,100,500,500,50,100"
# Node 12 random conversational traffic
dtnsim.node[12].app.enable = true
dtnsim.node[12].app.bundlesNumber = "5,5,2,4,4,2,1,2,5,2,1,1,1,1,3,2,5,1,2,1,4,3,3,5,1,1,3,3,1,4,3,4,1,4,1,3,5,3,3,5,2,4,3,2,1,5,1,4,2,3,4,1,1,5,2,1,1,1,2,3,2,1,3,2,1,1,1,2,3,3,4,1,2,1,3,4,2,1,5,1,5,1,2,3,5,5,3,2,3,5,3,4,2,4,2,3,2,1,3,4"
dtnsim.node[12].app.start = "78,61,97,64,92,74,100,68,25,16,70,33,61,15,25,23,9,38,52,62,30,49,39,47,76,39,50,22,49,85,81,58,82,100,15,100,55,37,94,77,52,100,94,41,76,4,26,61,49,45,34,88,78,51,67,95,96,25,64,15,59,19,11,19,88,19,55,70,7,25,46,64,18,85,78,23,82,100,31,26,96,80,88,20,76,68,20,44,60,49,49,46,90,15,97,23,18,94,55,78"
dtnsim.node[12].app.destinationEid = "11,11,11,11,11,11,11,11,11,11,11,11,11,11,11,11,11,11,11,11,11,11,11,11,11,11,11,11,11,11,11,11,11,11,11,11,13,13,13,13,13,13,13,13,13,13,13,13,13,13,13,13,13,13,13,13,13,13,13,13,13,13,13,13,13,13,13,13,13,13,13,13,13,13,13,13,13,13,13,13,13,13,13,13,13,13,13,13,13,13,13,13,13,13,13,13,13,13,13,13"
dtnsim.node[12].app.size = "100,50,200,50,500,500,200,50,200,200,50,500,500,100,100,50,500,50,50,100,500,100,500,100,50,100,200,500,100,100,500,200,200,500,500,100,500,50,200,500,50,500,100,200,200,100,100,500,100,200,500,100,200,500,50,500,100,500,500,100,50,500,200,500,50,50,100,50,50,100,100,50,500,50,200,200,100,500,100,500,50,100,500,500,50,50,50,100,50,50,200,100,100,100,100,50,500,200,50,50"
# Node 13 random conversational traffic
dtnsim.node[13].app.enable = true
dtnsim.node[13].app.bundlesNumber = "5,2,4,5,4,5,2,3,2,2,4,2,3,1,5,3,2,3,4,5,5,5,4,2,3,2,4,3,1,5,1,4,5,5,2,5,1,5,4,2,5,3,4,2,4,4,3,5,3,5,2,2,3,1,4,4,3,3,1,3,1,3,3,2,3,3,3,1,3,4,4,3,3,5,4,5,4,1,5,3,3,2,4,2,3,1,1,5,1,3,4,2,2,1,1,3,3,2,5,5"
dtnsim.node[13].app.start = "41,48,78,30,62,52,47,89,86,61,97,16,12,98,78,10,33,51,87,31,84,100,29,97,90,48,70,59,96,100,26,95,58,88,14,60,81,100,58,31,49,5,45,32,70,14,29,15,81,89,83,83,22,92,11,27,10,23,42,17,89,24,37,66,77,84,16,34,81,22,82,25,54,83,40,28,20,28,16,46,73,35,37,42,68,1,22,3,88,1,70,53,91,25,25,11,73,87,62,59"
dtnsim.node[13].app.destinationEid = "12,12,12,12,12,12,12,12,12,12,12,12,12,12,12,12,12,12,12,12,12,12,12,12,12,12,12,12,12,12,12,12,12,12,14,14,14,14,14,14,14,14,14,14,14,14,14,14,14,14,14,14,14,14,14,14,14,14,14,14,14,14,14,14,14,14,14,14,14,14,14,14,14,14,14,14,14,14,14,14,14,14,14,14,14,14,14,14,14,14,14,14,14,14,14,14,14,14,14,14"
dtnsim.node[13].app.size = "100,500,500,100,200,200,100,500,50,50,50,50,200,100,100,50,50,50,100,500,200,50,100,50,100,500,200,500,500,50,500,100,200,500,100,200,100,100,100,50,50,500,50,500,200,50,50,50,100,500,100,500,500,50,100,100,200,100,200,100,200,200,100,50,200,200,50,100,200,200,500,500,100,50,100,50,200,500,500,50,500,100,50,100,50,200,100,500,50,500,50,100,500,100,200,50,50,200,200,100"
# Node 14 random conversational traffic
dtnsim.node[14].app.enable = true
dtnsim.node[14].app.bundlesNumber = "1,2,3,2,5,1,4,3,3,1,1,3,4,4,5,2,5,5,2,3,2,1,4,2,3,5,5,1,1,1,3,5,1,4,3,3,3,3,2,5,1,4,5,5,1,3,4,2,2,4,3,4,5,5,2,3,3,5,4,4,5,5,2,4,4,1,2,5,1,4,3,3,5,4,3,1,4,5,3,3,4,2,3,2,5,3,4,1,1,1,3,3,4,5,2,4,3,5,2,3"
dtnsim.node[14].app.start = "68,89,100,59,37,53,34,75,39,22,84,24,19,37,30,46,93,45,70,87,92,37,83,29,88,55,44,23,38,24,56,79,36,44,51,7,12,75,61,97,26,8,80,57,55,50,23,5,72,49,45,74,71,52,90,12,98,42,93,45,86,72,95,79,12,80,6,38,52,1,78,45,63,16,39,89,37,25,77,88,60,74,67,42,27,73,75,48,69,93,11,62,17,6,2,28,35,94,80,6"
dtnsim.node[14].app.destinationEid = "13,13,13,13,13,13,13,13,13,13,13,13,13,13,13,13,13,13,13,13,13,13,13,13,13,13,13,13,13,13,13,13,13,13,13,13,13,13,13,13,13,15,15,15,15,15,15,15,15,15,15,15,15,15,15,15,15,15,15,15,15,15,15,15,15,15,15,15,15,15,15,15,15,15,15,15,15,15,15,15,15,15,15,15,15,15,15,15,15,15,15,15,15,15,15,15,15,15,15,15"
dtnsim.node[14].app.size = "500,200,50,100,500,500,50,100,50,100,100,500,200,500,500,200,100,200,500,100,100,50,50,200,50,50,500,500,200,500,100,100,50,100,100,50,500,200,500,50,50,200,500,500,50,200,200,500,50,200,200,100,500,50,200,200,500,200,200,200,50,200,500,500,200,500,500,100,200,100,100,200,100,50,50,50,100,100,50,50,100,200,100,50,500,500,200,100,100,100,500,200,100,50,200,500,500,100,200,200"
# Node 15 random conversational traffic
dtnsim.node[15].app.enable = true
dtnsim.node[15].app.bundlesNumber = "1,2,1,2,5,3,5,2,2,3,1,2,5,2,4,3,1,1,4,2,3,3,5,1,4,2,5,5,1,4,1,2,4,2,1,4,1,1,5,3,1,3,5,3,2,1,1,3,3,2,1,3,2,5,2,2,2,5,2,1,2,3,5,2,4,2,2,2,5,5,2,2,3,1,2,1,2,2,4,4,3,3,5,4,2,1,1,5,1,2,4,3,3,5,2,4,1,2,1,3"
dtnsim.node[15].app.start = "11,87,62,65,59,26,14,77,55,53,76,58,95,99,49,99,50,89,74,22,9,44,56,48,18,91,27,66,77,49,78,81,56,18,22,9,6,33,84,12,37,36,20,82,100,59,36,4,41,68,14,4,27,73,13,63,36,32,16,1,59,69,52,34,45,16,3,89,67,79,95,64,11,3,97,44,2,71,54,74,16,42,95,28,86,54,16,25,63,55,71,70,16,79,5,55,23,1,49,42"
dtnsim.node[15].app.destinationEid = "14,14,14,14,14,14,14,14,14,14,14,14,14,14,14,14,14,14,14,14,14,14,14,14,14,14,14,14,14,14,14,14,14,14,14,14,14,14,14,14,16,16,16,16,16,16,16,16,16,16,16,16,16,16,16,16,16,16,16,16,16,16,16,16,16,16,16,16,16,16,16,16,16,16,16,16,16,16,16,16,16,16,16,16,16,16,16,16,16,16,16,16,16,16,16,16,16,16,16,16"
dtnsim.node[15].app.size = "100,200,500,50,200,100,500,200,500,500,100,200,50,200,500,100,200,500,100,200,500,500,100,500,50,500,100,50,50,500,200,200,100,100,200,200,50,200,500,200,500,50,100,200,500,500,200,100,50,50,100,50,100,50,100,200,500,500,100,500,50,100,500,200,100,50,500,200,100,500,100,500,100,200,500,500,500,500,200,50,200,50,200,500,50,100,500,200,500,50,50,200,200,200,200,500,100,50,100,500"
# Node 16 random conversational traffic
dtnsim.node[16].app.enable = true
dtnsim.node[16].app.bundlesNumber = "4,5,5,4,2,4,3,3,4,2,4,4,5,3,2,5,3,4,4,1,1,1,1,2,1,4,1,3,5,4,2,2,5,5,4,3,3,3,3,5,5,4,4,2,4,1,2,2,4,3,2,1,4,4,4,4,2,4,5,1,5,4,4,2,4,5,2,4,1,1,1,5,1,4,4,1,1,1,5,4,1,4,5,4,5,1,5,2,2,4,4,4,4,3,4,3,2,4,5,3"
dtnsim.node[16].app.start = "42,38,23,84,100,69,46,6,51,69,22,9,28,19,64,41,9,56,43,11,68,86,96,72,19,4,98,45,4,79,60,75,20,35,93,24,72,71,20,88,11,63,32,50,3,100,8,59,24,67,67,100,60,29,75,31,23,59,89,39,68,61,69,37,29,14,51,81,65,45,28,48,24,47,77,99,34,100,88,100,17,68,17,15,10,39,38,6,81,71,30,98,99,62,38,32,65,91,7,9"
dtnsim.node[16].app.destinationEid = "15,15,15,15,15,15,15,15,15,15,15,15,15,15,15,15,15,15,15,15,15,15,15,15,15,15,15,15,15,15,15,15,15,15,15,15,15,15,15,15,15,15,15,15,17,17,17,17,17,17,17,17,17,17,17,17,17,17,17,17,17,17,17,17,17,17,17,17,17,17,17,17,17,17,17,17,17,17,17,17,17,17,17,17,17,17,17,17,17,17,17,17,17,17,17,17,17,17,17,17"
dtnsim.node[16].app.size = "50,50,100,50,500,500,500,50,100,500,100,50,500,100,500,50,50,100,100,500,100,200,200,500,500,50,100,100,100,500,500,50,200,200,50,200,50,50,200,200,500,500,100,500,50,200,200,500,50,500,500,500,100,50,500,200,500,200,200,100,50,100,50,50,500,50,200,500,100,500,50,500,100,500,500,500,500,200,200,200,100,50,200,200,50,50,50,100,500,50,500,50,200,500,50,100,100,50,50,50"
# Node 17 random conversational traffic
dtnsim.node[17].app.enable = true
dtnsim.node[17].app.bundlesNumber = "2,3,4,4,5,1,1,1,4,2,1,4,5,2,5,2,5,2,4,4,2,4,5,4,1,2,1,2,1,4,5,2,5,4,1,4,2,4,1,1,1,3,5,3,1,1,3,4,5,2,5,1,1,1,1,1,5,5,2,4,2,2,2,5,4,3,1,1,3,3,4,3,3,4,2,4,1,1,2,2,2,5,5,3,1,3,5,4,3,5,5,5,5,4,1,5,2,3,1,2"
dtnsim.node[17].app.start = "10,12,69,76,75,100,32,85,67,91,47,75,67,70,23,52,30,57,32,100,100,21,23,12,48,43,33,68,93,28,59,3,13,22,48,31,61,49,75,39,18,61,30,71,88,71,24,22,88,84,10,87,84,4,75,22,44,21,17,61,26,20,54,29,40,44,10,12,29,13,93,86,100,24,88,62,26,78,54,96,78,74,94,93,31,85,70,10,100,53,58,74,76,19,12,87,19,80,4,71"
dtnsim.node[17].app.destinationEid = "16,16,16,16,16,16,16,16,16,16,16,16,16,16,16,16,16,16,16,16,16,16,16,16,16,16,16,16,16,18,18,18,18,18,18,18,18,18,18,18,18,18,18,18,18,18,18,18,18,18,18,18,18,18,18,18,18,18,18,18,18,18,18,18,18,18,18,18,18,18,18,18,18,18,18,18,18,18,18,18,18,18,18,18,18,18,18,18,18,18,18,18,18,18,18,18,18,18,18,18"
dtnsim.node[17].app.size = "500,200,100,200,200,50,200,500,50,200,500,200,200,500,200,500,500,50,100,50,200,200,50,500,500,50,500,50,500,200,500,100,500,50,500,50,50,200,200,200,500,200,100,200,100,50,200,50,200,200,100,50,200,200,200,100,500,200,100,50,100,200,50,100,500,500,100,100,500,50,100,500,100,200,100,100,100,500,200,500,100,200,50,50,500,50,50,100,100,200,500,50,50,500,500,50,200,100,50,50"
# Node 18 random conversational traffic
dtnsim.node[18].app.enable = true
dtnsim.node[18].app.bundlesNumber = "1,1,2,4,3,3,1,3,3,1,5,4,2,2,1,3,1,2,2,4,2,5,5,2,1,4,1,2,4,1,3,4,3,2,4,1,5,1,1,3,3,4,5,3,3,3,5,1,5,3,3,1,1,2,4,1,3,3,4,5,4,4,4,2,3,3,1,2,4,1,3,2,5,2,2,3,3,4,1,1,2,4,1,5,1,4,1,1,2,4,4,5,5,1,3,4,5,3,2,4"
dtnsim.node[18].app.start = "38,4,23,32,37,80,21,68,79,26,23,90,11,85,85,25,27,31,47,13,33,100,96,35,57,94,33,92,78,14,100,66,88,23,86,6,25,24,32,12,98,36,91,10,37,31,45,60,48,66,60,21,96,100,30,17,69,33,47,1,54,57,88,8,11,13,19,11,31,39,24,63,10,41,24,79,2,92,95,44,75,17,49,34,49,53,44,71,1,83,60,16,77,27,81,82,43,56,71,45"
dtnsim.node[18].app.destinationEid = "17,17,17,17,17,17,17,17,17,17,17,17,17,17,17,17,17,17,17,17,17,17,17,17,17,17,17,17,17,17,17,17,17,17,17,17,19,19,19,19,19,19,19,19,19,19,19,19,19,19,19,19,19,19,19,19,19,19,19,19,19,19,19,19,19,19,19,19,19,19,19,19,19,19,19,19,19,19,19,19,19,19,19,19,19,19,19,19,19,19,19,19,19,19,19,19,19,19,19,19"
dtnsim.node[18].app.size = "500,50,200,100,100,100,100,500,500,100,500,200,50,200,500,500,100,50,500,200,200,50,100,200,200,200,500,100,50,500,50,100,100,100,100,100,200,200,500,100,200,50,50,200,500,200,200,50,100,500,100,200,100,200,100,200,500,500,50,100,200,500,100,500,50,100,100,500,50,100,200,100,100,50,200,100,500,500,200,200,500,50,100,200,500,500,500,100,100,500,50,500,100,100,500,50,200,50,500,100"
# Node 19 random conversational traffic
dtnsim.node[19].app.enable = true
dtnsim.node[19].app.bundlesNumber = "3,5,1,2,1,2,3,4,5,2,3,4,4,3,5,5,5,2,3,5,2,1,5,2,3,2,1,5,5,1,5,3,4,2,2,3,2,1,1,3,2,1,2,3,2,1,1,5,4,3,4,1,3,2,1,3,2,2,2,2,4,1,2,5,5,5,1,2,3,2,3,2,3,5,4,2,2,2,2,4,4,4,3,1,4,3,2,4,4,4,5,5,2,3,2,2,2,2,5,3"
dtnsim.node[19].app.start = "26,34,99,17,44,46,61,53,31,99,100,36,55,3,63,11,23,17,45,28,65,42,32,12,100,99,54,81,25,55,39,51,57,9,21,87,28,91,65,54,98,90,6,61,68,49,83,2,15,45,84,1,50,92,26,96,20,19,14,29,98,64,74,15,68,1,86,43,90,50,17,48,22,80,50,45,73,82,45,65,65,73,51,90,68,4,50,51,40,68,88,30,43,15,22,87,39,18,12,34"
dtnsim.node[19].app.destinationEid = "18,18,18,18,18,18,18,18,18,18,18,18,18,18,18,18,18,18,18,18,18,18,18,18,18,18,18,18,18,18,18,18,18,18,18,18,18,18,18,18,20,20,20,20,20,20,20,20,20,20,20,20,20,20,20,20,20,20,20,20,20,20,20,20,20,20,20,20,20,20,20,20,20,20,20,20,20,20,20,20,20,20,20,20,20,20,20,20,20,20,20,20,20,20,20,20,20,20,20,20"
dtnsim.node[19].app.size = "50,500,100,50,500,50,500,100,50,200,50,100,50,100,50,50,50,500,100,100,200,100,200,200,50,500,50,500,100,500,200,200,50,500,100,50,100,500,500,200,200,50,50,200,100,100,200,50,50,200,500,50,500,200,200,50,200,50,200,100,200,200,500,50,100,100,100,200,100,500,50,500,500,50,50,200,500,50,50,50,500,200,50,500,500,200,500,100,200,200,100,100,100,50,200,200,200,100,100,50"
# Node 20 random conversational traffic
dtnsim.node[20].app.enable = true
dtnsim.node[20].app.bundlesNumber = "2,5,5,1,2,5,2,2,4,5,1,3,4,2,5,2,5,4,1,2,1,1,4,2,1,5,4,4,5,3,5,2,3,3,5,5,5,5,4,4,2,2,5,3,5,2,2,2,4,2,2,2,5,4,2,1,2,2,3,5,4,3,1,1,2,5,2,2,4,1,3,1,3,2,3,1,4,1,2,2,4,5,5,2,1,1,1,4,4,4,3,4,4,5,2,2,4,1,2,4"
dtnsim.node[20].app.start = "99,98,56,3,24,48,86,8,31,24,25,21,37,69,24,31,51,47,88,71,82,94,56,42,45,23,92,49,24,99,42,71,88,53,54,24,40,72,83,70,34,94,77,5,25,13,62,48,55,6,72,52,34,71,15,43,15,39,41,42,17,40,74,18,55,85,5,18,96,25,77,42,27,93,48,4,46,84,54,95,48,36,41,41,81,3,75,24,33,29,64,98,22,51,72,9,84,34,6,16"
dtnsim.node[20].app.destinationEid = "19,19,19,19,19,19,19,19,19,19,19,19,19,19,19,19,19,19,19,19,19,19,19,19,19,19,19,19,19,21,21,21,21,21,21,21,21,21,21,21,21,21,21,21,21,21,21,21,21,21,21,21,21,21,21,21,21,21,21,21,21,21,21,21,21,21,21,21,21,21,21,21,21,21,21,21,21,21,21,21,21,21,21,21,21,21,21,21,21,21,21,21,21,21,21,21,21,21,21,21"
dtnsim.node[20].app.size = "50,100,50,500,50,50,50,50,100,100,200,500,50,500,50,200,200,500,200,200,50,50,50,50,50,200,100,200,200,100,50,100,100,200,100,100,100,200,200,50,200,200,200,200,100,200,100,200,50,200,200,50,200,100,500,500,500,50,50,500,500,500,200,50,500,200,200,500,500,100,500,100,50,50,50,500,50,500,200,100,100,200,100,200,200,50,50,100,200,50,500,50,500,50,500,50,100,500,500,200"
# Node 21 random conversational traffic
dtnsim.node[21].app.enable = true
dtnsim.node[21].app.bundlesNumber = "1,1,1,1,4,5,2,4,4,3,2,4,4,1,1,4,1,5,4,5,5,5,5,5,5,1,3,4,4,5,4,1,4,4,5,5,5,3,2,3,2,4,2,1,2,5,3,4,1,3,1,3,5,5,4,5,5,4,2,5,3,3,3,5,3,1,2,1,1,4,2,2,2,2,1,1,4,3,5,1,2,3,1,2,5,4,1,4,4,5,1,1,5,4,2,3,4,4,1,5"
dtnsim.node[21].app.start = "100,50,75,54,49,82,86,73,98,13,31,20,66,52,64,12,78,24,46,22,83,28,56,13,27,79,44,99,56,8,57,56,44,49,84,26,40,35,69,99,26,58,18,89,39,26,44,60,87,47,94,39,4,96,62,10,89,46,81,93,27,22,92,63,91,7,69,65,24,79,88,29,32,36,37,81,27,5,33,19,46,87,18,27,82,4,67,76,69,87,86,57,1,97,64,63,11,87,98,1"
dtnsim.node[21].app.destinationEid = "20,20,20,20,20,20,20,20,20,20,20,20,20,20,20,20,20,20,20,20,20,20,20,20,20,20,20,20,20,20,20,20,20,20,20,20,20,20,20,20,20,20,20,20,20,20,22,22,22,22,22,22,22,22,22,22,22,22,22,22,22,22,22,22,22,22,22,22,22,22,22,22,22,22,22,22,22,22,22,22,22,22,22,22,22,22,22,22,22,22,22,22,22,22,22,22,22,22,22,22"
dtnsim.node[21].app.size = "100,50,200,50,500,500,100,200,50,200,50,500,50,500,200,200,200,200,100,200,500,200,50,50,100,100,100,200,200,100,50,50,50,200,50,50,500,100,500,50,200,50,50,500,100,500,100,100,100,50,100,50,200,200,200,50,500,200,200,500,50,500,100,50,500,50,200,50,100,100,100,500,200,50,200,100,100,50,500,50,50,100,100,100,200,50,50,50,100,200,200,50,100,50,100,200,200,50,100,100"
# Node 22 random conversational traffic
dtnsim.node[22].app.enable = true
dtnsim.node[22].app.bundlesNumber = "5,3,5,4,4,1,3,3,2,3,5,5,5,1,1,2,4,5,1,3,5,1,3,1,1,5,5,1,2,2,2,2,4,4,4,1,2,3,4,1,4,2,2,5,5,1,4,1,4,5,4,1,3,3,5,5,5,5,4,1,1,3,4,2,3,2,4,3,1,4,2,1,4,3,2,3,2,2,3,4,3,5,5,2,1,1,3,3,5,5,4,4,4,5,2,5,3,2,3,4"
dtnsim.node[22].app.start = "50,69,92,98,100,93,82,31,95,72,93,74,30,95,36,40,44,37,53,92,84,11,77,85,96,95,58,6,99,73,15,88,6,72,78,45,9,31,72,96,77,11,89,22,80,69,17,15,89,9,6,14,79,30,40,63,6,90,14,3,80,41,64,100,16,72,35,7,13,73,91,60,7,76,77,36,67,47,55,7,5,44,85,54,34,42,58,38,35,74,9,27,91,65,9,49,98,20,18,1"
dtnsim.node[22].app.destinationEid = "21,21,21,21,21,21,21,21,21,21,21,21,21,21,21,21,21,21,21,21,21,21,21,21,21,21,21,21,21,21,21,21,21,23,23,23,23,23,23,23,23,23,23,23,23,23,23,23,23,23,23,23,23,23,23,23,23,23,23,23,23,23,23,23,23,23,23,23,23,23,23,23,23,23,23,23,23,23,23,23,23,23,23,23,23,23,23,23,23,23,23,23,23,23,23,23,23,23,23,23"