[General]
network = src.dtnsim										
repeat = 1
allow-object-stealing-on-deletion = true

# Simulation end time
sim-time-limit = 84600s

# Nodes quantity (identifiers (EiDs) matches their index, EiD=0 is ignored)			
dtnsim.nodesNumber = 120
dtnsim.node[*].icon = "satellite"

# Nodes's failure rates
dtnsim.node[*].fault.enable = true
dtnsim.node[*].fault.meanTTF = 40s
dtnsim.node[*].fault.meanTTR = 10s

# Mobility
dtnsim.node[*].hasMobility = true
dtnsim.node[*].norad.satIndex = parentIndex()
dtnsim.node[*].norad.satName = "sat"
**.updateInterval = 20s
**.numOfSats = 120
**.satPerPlane = 10
**.altitude = 540
**.planes = 12
**.phaseOffset = 7

dtnsim.node[*].dtn.routing = "antop"
dtnsim.node[*].dtn.printRoutingDebug = true

# --- Random Traffic Configuration ---
# Node 1 random traffic
dtnsim.node[1].app.enable = true
dtnsim.node[1].app.bundlesNumber = "49,45,6,35,42,46,48,29,45,36,3,31,28,48,33,22,25,2,44,3,40,44,36,18,8,7,41,48,27,22,32,10,1,39,43,49,4,31,16,13,15,48,21,8,18,44,48,40,43,41,8,39,13,16,28,7,25,25,21,6,25,46,20,16,50,49,32,39,10,30,29,39,19,43,45,15,31,12,9,5,35,29,42,31,41,27,11,13,37,22,7,32,22,1,40,21,27,48,41,31"
dtnsim.node[1].app.start = "40,41,63,80,93,99,72,70,39,76,19,52,69,48,87,42,73,64,30,74,40,88,61,44,36,20,43,23,82,37,54,82,9,2,74,98,66,47,14,41,56,79,22,19,84,7,4,26,53,5,28,38,3,33,47,47,65,59,99,35,80,73,70,80,79,40,72,55,57,87,32,38,29,11,87,69,79,98,1,28,1,71,73,28,19,33,92,69,22,61,3,38,57,85,75,13,52,52,34,98"
dtnsim.node[1].app.destinationEid = "4,49,38,11,105,59,48,113,116,97,17,7,86,78,26,60,71,47,15,106,25,12,112,118,109,47,95,54,95,120,88,23,20,73,42,90,101,97,88,67,95,36,84,2,73,117,107,35,65,92,25,99,62,110,24,34,16,45,73,60,88,52,72,10,78,77,89,83,40,98,117,88,53,101,20,71,24,70,24,33,7,36,43,79,59,34,118,109,23,3,117,92,114,4,88,96,95,81,68,15"
dtnsim.node[1].app.size = "50,50,100,500,500,500,200,200,200,200,500,50,200,500,50,50,200,100,500,200,500,100,500,500,500,50,200,100,500,100,200,200,200,200,50,50,200,200,500,500,500,100,500,500,100,500,100,200,100,50,200,200,50,500,100,100,200,100,500,200,200,100,50,50,500,50,200,200,500,50,100,100,500,200,500,500,500,500,500,500,500,200,500,500,100,200,200,50,200,100,100,200,100,200,500,500,100,500,50,100"
        # Node 2 random traffic
dtnsim.node[2].app.enable = true
dtnsim.node[2].app.bundlesNumber = "30,38,34,27,28,38,37,7,21,25,49,9,36,41,25,10,12,48,19,49,12,6,24,29,45,14,22,2,25,34,47,10,24,33,48,20,23,25,26,3,48,2,7,38,35,27,38,1,5,38,7,50,28,7,39,23,47,11,2,35,13,29,7,34,45,28,8,24,21,2,47,48,43,8,20,38,36,3,4,12,10,40,46,5,37,33,4,12,41,1,47,44,25,1,36,25,8,3,43,17"
dtnsim.node[2].app.start = "22,8,56,76,20,53,47,77,92,2,60,61,46,38,97,44,68,22,33,8,18,70,79,60,37,70,76,54,7,60,46,14,23,47,45,35,43,98,66,88,99,36,23,87,74,69,8,16,47,100,81,29,6,34,42,76,95,32,32,54,85,65,40,23,40,83,2,2,18,81,82,82,8,39,5,55,29,10,31,29,19,16,48,91,19,19,12,23,69,69,9,18,34,91,63,52,71,29,45,72"
dtnsim.node[2].app.destinationEid = "66,110,29,56,111,14,99,8,62,100,1,30,20,41,105,53,109,20,21,4,95,22,68,83,81,51,94,84,1,40,99,5,119,22,10,106,34,69,23,15,100,56,61,79,78,107,120,77,35,41,29,80,92,91,1,30,31,87,37,39,100,39,73,42,92,50,113,119,37,38,101,80,65,102,68,37,83,118,49,24,57,13,114,112,91,100,5,92,117,38,115,76,119,3,8,16,12,34,13,69"
dtnsim.node[2].app.size = "200,50,100,50,100,500,200,200,500,200,500,500,50,500,500,50,100,100,200,50,100,100,200,100,200,500,100,500,50,100,100,100,100,200,100,200,100,50,200,500,200,100,50,200,500,100,100,200,200,100,50,200,500,50,100,100,500,100,50,500,100,200,50,500,50,100,100,500,50,500,200,50,100,50,200,50,500,50,200,500,200,200,100,50,50,500,100,500,200,50,100,200,50,50,100,500,500,500,50,200"
        # Node 3 random traffic
dtnsim.node[3].app.enable = true
dtnsim.node[3].app.bundlesNumber = "30,45,9,34,19,14,35,1,25,23,36,3,31,26,30,36,17,13,43,1,20,2,20,16,45,31,10,8,9,48,34,33,38,20,5,16,8,7,25,46,46,26,17,44,49,7,20,43,40,23,28,29,12,39,21,49,22,48,26,4,34,15,19,44,48,46,34,18,46,38,23,16,43,11,22,40,35,5,16,29,24,14,35,39,11,48,31,43,18,15,9,10,48,38,42,28,31,4,32,47"
dtnsim.node[3].app.start = "16,2,6,41,39,16,97,66,14,12,66,65,39,30,40,58,75,84,55,64,16,73,70,75,11,95,16,100,9,37,72,42,70,65,41,73,99,29,43,84,56,26,18,54,88,45,58,50,57,29,71,73,49,97,16,51,68,15,5,15,46,41,1,64,19,81,86,33,78,53,13,81,15,45,12,20,76,12,22,56,58,76,39,76,22,3,14,39,68,64,50,12,59,95,92,99,31,73,21,25"
dtnsim.node[3].app.destinationEid = "49,65,37,119,61,40,96,39,52,95,55,27,45,80,22,71,59,43,30,68,23,15,110,10,75,61,8,50,67,114,30,26,44,71,69,62,59,53,27,38,37,36,71,29,105,81,31,28,99,50,26,16,63,98,80,16,32,115,95,40,76,88,51,62,75,14,20,59,41,33,88,75,97,109,39,84,98,82,111,9,18,62,117,1,21,71,2,86,109,86,64,91,32,72,76,61,68,38,17,104"
dtnsim.node[3].app.size = "100,500,200,500,100,100,500,200,200,200,50,500,50,50,100,200,100,50,200,100,50,500,200,200,200,500,200,50,100,50,50,500,200,100,50,500,200,200,200,500,500,50,100,200,50,200,100,100,50,200,200,200,50,200,500,100,500,200,100,100,200,50,500,500,500,200,500,500,500,50,50,100,50,100,50,200,500,200,500,100,500,500,200,50,500,200,200,100,100,500,500,100,500,200,500,500,500,50,100,200"
        # Node 4 random traffic
dtnsim.node[4].app.enable = true
dtnsim.node[4].app.bundlesNumber = "11,3,22,43,36,16,32,29,29,37,14,7,26,3,11,29,36,9,17,31,11,15,23,47,46,11,45,21,11,3,34,20,22,21,34,6,41,33,8,30,29,25,8,15,19,3,5,1,12,30,44,5,16,44,27,22,21,24,30,36,24,4,1,46,26,35,48,5,44,3,34,18,9,37,16,12,46,29,29,30,41,36,33,33,34,33,32,43,18,50,7,18,13,44,7,41,33,37,32,21"
dtnsim.node[4].app.start = "21,32,85,51,22,43,27,37,16,12,55,42,7,89,91,55,89,10,86,26,9,56,47,15,51,52,62,6,10,78,66,19,18,24,43,66,14,25,44,11,75,70,54,8,95,14,10,27,75,11,61,51,51,97,48,57,2,11,99,43,40,49,4,46,39,21,43,10,64,73,36,60,86,95,94,35,57,100,68,89,19,43,85,84,38,54,41,96,2,16,11,38,45,23,53,81,28,3,92,44"
dtnsim.node[4].app.destinationEid = "38,89,41,19,23,55,103,35,83,66,70,2,9,44,102,89,112,61,96,29,1,71,40,118,98,119,38,75,84,3,90,112,89,103,44,59,13,11,78,83,47,21,111,9,92,13,1,116,115,104,45,51,21,96,117,93,45,83,45,7,8,81,92,73,86,21,27,63,88,85,36,40,86,55,18,27,79,70,55,57,93,84,51,10,32,39,53,14,56,117,92,91,3,65,43,61,37,112,45,10"
dtnsim.node[4].app.size = "100,100,500,500,50,200,100,100,50,200,200,200,500,100,100,500,200,200,50,50,50,50,100,100,50,500,50,500,500,100,100,200,100,500,200,500,200,200,50,50,100,500,50,200,100,50,50,100,50,500,100,200,200,100,100,100,500,50,50,100,200,50,200,50,500,200,500,100,200,200,500,500,500,100,50,50,50,200,100,200,200,500,50,500,200,50,100,100,500,200,100,100,500,100,500,100,200,100,100,100"
        # Node 5 random traffic
dtnsim.node[5].app.enable = true
dtnsim.node[5].app.bundlesNumber = "36,26,36,30,37,27,1,5,9,1,10,5,20,9,28,17,50,50,1,26,1,9,21,10,32,48,41,10,44,25,15,9,42,18,21,33,36,16,9,48,29,42,16,24,25,46,38,42,7,20,13,20,38,5,36,46,8,37,36,48,48,40,5,9,25,14,5,6,40,30,11,15,46,5,32,9,14,41,12,47,44,29,45,5,14,10,5,42,15,20,33,42,23,26,23,12,44,6,4,43"
dtnsim.node[5].app.start = "69,31,70,37,55,74,91,13,51,20,79,81,87,96,19,42,23,8,84,64,76,27,62,59,23,68,52,83,68,15,58,71,30,47,69,59,36,55,37,31,27,66,82,9,87,25,78,15,25,98,26,93,46,21,88,59,54,66,8,44,57,50,40,19,67,73,81,59,45,85,68,56,48,54,29,59,58,84,55,53,47,78,58,72,44,80,79,92,25,34,38,56,64,34,60,7,82,33,4,49"
dtnsim.node[5].app.destinationEid = "60,86,47,91,60,71,87,25,35,101,72,1,35,97,82,78,44,33,81,116,76,84,107,83,93,68,40,2,86,63,77,73,60,93,8,95,7,27,98,30,28,21,18,113,58,58,115,83,81,36,27,42,10,112,26,115,79,94,110,87,29,93,85,15,11,19,100,76,18,19,55,19,61,15,64,40,78,31,41,107,75,37,43,36,43,1,20,2,67,84,13,9,47,15,90,17,48,77,115,73"
dtnsim.node[5].app.size = "500,200,100,100,100,50,500,50,200,500,100,500,500,100,50,100,50,500,500,50,100,500,100,100,500,100,200,100,500,200,100,500,200,50,100,500,200,500,100,200,200,500,200,200,100,50,500,50,100,200,500,500,50,100,200,100,200,50,100,200,500,50,500,200,500,500,500,50,200,200,100,50,100,200,500,500,500,500,500,500,100,200,500,100,200,50,50,500,100,200,200,100,50,500,200,500,500,200,50,500"
        # Node 6 random traffic
dtnsim.node[6].app.enable = true
dtnsim.node[6].app.bundlesNumber = "13,20,31,9,28,29,28,22,27,33,2,16,43,6,12,25,34,11,29,22,32,27,40,19,9,2,6,4,37,4,4,3,47,34,20,8,21,8,20,41,39,36,48,23,26,41,32,31,4,16,24,40,18,10,16,28,27,39,35,40,24,24,42,1,34,40,24,18,16,41,42,24,3,36,50,1,35,9,10,50,45,23,33,21,11,19,9,11,16,46,39,15,4,15,43,46,42,30,13,30"
dtnsim.node[6].app.start = "22,32,57,55,91,13,99,38,90,8,21,29,51,90,48,10,37,73,47,78,20,85,46,56,68,37,12,31,74,47,87,95,21,9,33,60,3,53,36,22,83,5,19,49,23,72,75,23,29,25,53,12,78,6,19,94,65,80,36,78,81,72,23,88,48,22,88,94,92,95,18,90,91,86,57,94,55,55,100,61,38,43,70,46,86,30,18,20,72,62,46,43,19,16,46,65,23,20,16,57"
dtnsim.node[6].app.destinationEid = "96,86,85,24,73,89,55,69,1,47,68,49,104,47,75,75,92,32,75,77,71,94,111,23,58,88,33,18,31,92,11,18,69,94,108,32,1,69,96,1,105,41,71,44,96,113,37,24,71,7,101,28,73,16,39,69,54,115,53,14,79,94,78,27,98,8,108,2,30,66,45,97,11,71,10,14,79,62,100,9,89,83,67,120,15,60,55,36,27,66,110,109,87,84,28,38,75,48,45,66"
dtnsim.node[6].app.size = "100,50,500,100,50,200,100,200,200,200,500,200,50,50,50,500,100,100,50,200,500,100,100,200,100,200,200,200,500,100,50,100,100,50,500,200,50,100,200,500,200,50,200,500,50,50,500,500,200,200,50,200,50,500,100,200,100,200,200,500,200,500,200,200,500,100,50,50,200,200,500,50,100,500,500,50,200,100,100,100,100,200,200,500,200,500,200,200,500,50,100,500,500,50,200,100,100,100,200,500"
        # Node 7 random traffic
dtnsim.node[7].app.enable = true
dtnsim.node[7].app.bundlesNumber = "12,36,41,30,49,18,44,21,39,17,24,31,12,50,47,36,34,34,43,43,1,42,6,30,44,8,41,34,11,25,6,31,19,28,19,21,26,38,22,33,6,19,11,9,21,45,37,42,50,49,20,4,43,23,10,30,30,22,45,6,41,20,2,12,38,2,5,40,31,35,44,42,33,30,31,45,19,27,42,43,43,48,4,11,41,29,28,17,39,49,16,7,21,28,26,40,35,11,9,17"
dtnsim.node[7].app.start = "70,30,13,32,82,74,6,7,45,80,41,3,59,75,69,92,64,34,85,28,96,78,6,98,70,76,4,45,25,16,8,94,86,14,10,67,2,26,48,79,14,51,11,85,76,87,88,26,100,63,75,28,6,68,66,29,85,35,88,49,19,75,43,2,69,45,67,100,78,16,32,11,18,2,93,29,79,27,12,56,2,46,45,4,81,73,59,66,64,93,89,42,35,95,33,20,2,76,95,50"
dtnsim.node[7].app.destinationEid = "104,118,86,17,57,70,32,32,10,45,76,71,14,51,35,12,85,96,101,117,92,110,77,66,36,107,83,88,65,30,18,89,63,103,15,60,61,67,17,32,89,50,9,61,11,24,40,23,78,42,81,113,48,50,81,53,24,98,100,58,79,42,25,117,82,102,48,4,61,70,2,3,19,114,49,36,87,20,19,31,21,56,6,29,77,34,109,30,80,4,112,37,46,119,23,94,37,22,112,120"
dtnsim.node[7].app.size = "50,50,50,200,100,50,500,50,50,50,200,200,100,50,200,100,500,50,50,100,200,500,50,50,200,500,50,100,500,50,200,500,200,100,500,500,200,200,500,100,50,200,200,50,500,200,50,100,500,50,500,500,200,200,100,500,500,100,50,50,200,50,500,50,50,200,500,200,100,50,50,50,100,100,500,100,200,50,100,50,100,500,50,100,200,50,50,100,100,100,100,100,500,50,200,50,100,500,500,500"
        # Node 8 random traffic
dtnsim.node[8].app.enable = true
dtnsim.node[8].app.bundlesNumber = "25,40,20,47,47,27,27,40,21,7,24,41,11,32,8,5,36,11,33,12,9,47,50,38,25,45,30,27,37,38,19,2,14,21,34,24,8,35,25,43,6,34,32,26,1,48,38,31,32,1,19,7,50,23,15,50,50,28,27,36,27,33,31,16,50,44,10,11,25,42,29,41,33,12,30,33,45,29,39,46,40,19,46,23,20,17,31,26,38,16,16,43,5,39,45,47,4,46,7,11"
dtnsim.node[8].app.start = "95,73,3,84,92,25,98,95,19,83,96,24,47,63,39,13,83,64,93,26,52,73,33,92,71,6,76,47,84,60,10,36,28,47,53,8,15,38,84,65,99,62,8,2,43,47,81,99,64,36,69,89,79,60,3,7,67,37,9,46,95,69,88,34,84,93,94,3,77,54,97,88,57,34,78,52,2,72,23,58,81,93,35,68,75,84,16,38,80,48,33,26,17,30,74,7,75,63,22,85"
dtnsim.node[8].app.destinationEid = "16,64,30,33,39,15,68,21,107,76,88,55,28,77,50,104,37,89,92,104,38,114,112,118,80,115,54,99,20,12,34,45,103,88,92,63,12,119,5,6,94,43,79,100,79,86,49,41,75,102,19,80,33,66,12,112,6,107,112,26,71,51,13,102,12,15,20,13,116,54,117,87,2,59,103,25,1,28,79,72,6,104,32,66,63,101,23,38,108,50,3,65,42,50,38,47,58,42,88,22"
dtnsim.node[8].app.size = "50,200,200,50,500,50,100,200,100,100,100,500,50,50,100,200,50,100,50,100,50,50,500,200,100,100,50,100,500,50,500,500,200,200,100,50,200,200,200,200,500,50,100,500,200,100,50,500,50,500,50,500,50,50,100,500,500,50,100,200,500,100,50,100,500,50,50,500,200,500,200,200,100,200,50,100,50,200,500,200,100,500,500,200,50,500,200,200,200,100,50,200,100,200,50,100,500,100,200,100"
        # Node 9 random traffic
dtnsim.node[9].app.enable = true
dtnsim.node[9].app.bundlesNumber = "40,10,40,28,47,17,4,46,23,27,15,34,49,2,39,26,44,35,22,10,13,30,30,38,42,6,41,32,29,19,4,26,12,18,15,27,45,32,32,34,45,12,12,5,29,44,12,43,45,42,38,2,44,18,43,42,3,9,8,37,38,9,14,29,22,2,44,46,7,50,34,21,49,16,6,38,44,26,37,42,14,28,1,27,42,8,34,27,8,25,10,39,28,31,29,12,20,49,20,25"
dtnsim.node[9].app.start = "58,44,74,50,11,36,34,52,33,52,34,65,90,31,24,80,91,48,91,62,6,33,68,55,94,16,6,70,25,57,57,11,1,64,22,84,78,7,65,28,13,18,76,17,58,60,77,76,65,51,73,85,80,95,29,9,75,93,33,30,39,61,38,90,81,82,59,97,78,45,3,21,92,23,35,35,70,55,89,59,31,34,83,59,28,65,23,99,27,17,70,32,36,41,89,92,22,62,92,78"
dtnsim.node[9].app.destinationEid = "57,87,63,22,67,71,49,57,87,72,97,36,75,95,27,50,5,99,25,63,119,5,86,82,86,112,88,82,86,8,28,29,46,32,95,43,118,45,24,8,2,49,2,58,51,21,99,61,82,93,14,69,32,98,12,26,94,51,79,19,15,31,64,41,107,80,46,106,75,97,96,111,25,103,106,105,116,1,106,38,36,72,99,73,73,89,83,16,71,52,74,53,99,14,101,100,78,44,111,1"
dtnsim.node[9].app.size = "100,50,100,50,200,50,200,200,500,200,200,50,100,50,500,50,100,100,500,500,200,500,50,100,200,200,100,100,200,500,50,50,50,200,500,200,200,500,100,200,50,500,100,500,200,500,500,50,500,100,500,100,50,200,200,200,200,500,100,100,100,500,200,200,50,100,100,500,50,500,500,50,50,100,50,200,100,100,500,100,200,200,50,100,500,200,500,500,500,200,100,500,100,200,200,100,100,50,50,50"
        # Node 10 random traffic
dtnsim.node[10].app.enable = true
dtnsim.node[10].app.bundlesNumber = "18,20,46,6,33,40,48,3,16,29,24,23,18,40,38,22,44,26,21,14,17,50,48,27,41,5,24,43,38,15,14,24,44,27,30,26,22,8,18,39,6,30,44,37,10,44,28,47,48,11,15,27,18,50,38,48,4,13,20,40,18,20,48,5,41,23,26,32,30,16,47,9,49,10,31,16,10,40,23,17,44,37,25,9,21,11,46,37,42,49,48,20,35,10,43,25,29,39,3,34"
dtnsim.node[10].app.start = "32,82,82,77,97,74,73,45,76,7,9,4,25,67,8,36,99,97,99,28,95,74,84,58,15,78,25,38,24,13,43,22,31,47,62,80,43,1,61,27,82,48,49,95,92,39,60,25,17,98,89,34,63,26,56,13,68,12,73,62,57,50,90,24,80,36,17,59,87,40,46,22,26,9,76,89,76,13,61,26,46,66,18,16,14,52,70,29,57,74,52,68,83,28,73,87,9,80,53,3"
dtnsim.node[10].app.destinationEid = "89,98,61,76,52,93,92,71,106,105,19,74,117,115,68,54,11,111,27,45,21,12,42,46,43,98,84,106,95,26,114,35,32,55,100,28,39,5,73,37,59,59,112,120,27,58,60,45,12,57,5,89,94,39,109,42,18,66,61,115,108,12,77,68,48,79,58,107,108,108,76,6,72,77,54,114,103,1,57,40,47,27,14,31,22,67,76,48,103,45,65,68,8,69,11,21,62,75,3,13"
dtnsim.node[10].app.size = "200,200,200,50,200,100,50,500,50,50,50,50,100,50,50,500,50,500,50,500,50,200,500,500,200,100,100,50,100,500,200,500,500,100,50,500,500,200,50,200,100,100,50,500,500,200,200,50,100,200,500,500,100,200,500,500,500,200,500,100,200,50,100,200,100,50,100,50,200,500,500,50,100,500,500,50,100,100,500,500,200,200,100,500,100,500,200,200,50,200,50,50,100,50,500,500,500,500,500,100"
        # Node 11 random traffic
dtnsim.node[11].app.enable = true
dtnsim.node[11].app.bundlesNumber = "28,4,19,17,22,33,12,23,36,13,16,43,4,42,44,47,21,44,19,8,7,44,39,47,36,39,49,44,32,28,27,15,14,40,44,15,33,7,21,39,39,37,25,43,26,31,7,50,39,15,39,11,48,48,35,11,36,46,3,41,47,44,11,29,28,12,27,18,26,9,36,32,16,39,41,39,21,3,1,34,48,34,25,10,4,49,24,18,34,50,11,4,19,21,4,3,11,29,17,2"
dtnsim.node[11].app.start = "44,26,15,34,46,2,40,30,37,21,62,5,17,3,95,88,97,21,59,19,4,55,29,31,8,35,48,37,6,55,15,98,93,17,48,24,38,24,71,74,4,47,27,48,5,93,11,26,45,56,65,1,95,91,6,92,50,61,26,32,43,68,67,48,35,71,89,53,27,23,16,11,44,64,30,66,57,31,65,24,94,52,12,71,24,28,91,83,1,100,59,79,54,94,2,19,11,51,44,67"
dtnsim.node[11].app.destinationEid = "28,117,44,94,120,63,8,52,35,9,96,96,68,102,25,81,46,47,86,113,48,108,55,41,98,98,56,72,26,110,48,66,28,82,34,51,105,87,45,53,50,24,64,4,30,22,120,112,43,46,87,47,5,3,49,76,95,15,31,15,70,49,42,109,61,58,104,63,42,50,94,69,93,20,54,61,115,80,120,49,71,5,91,34,44,3,112,8,36,110,115,108,45,75,71,72,37,29,40,12"
dtnsim.node[11].app.size = "50,500,100,500,100,200,100,500,200,50,100,50,50,50,100,200,50,50,200,50,50,200,50,100,100,500,100,100,500,200,200,200,500,100,500,500,200,500,100,50,500,50,200,50,200,200,200,50,50,200,100,200,50,100,200,500,100,100,100,100,200,200,200,200,100,50,50,100,200,100,50,500,500,200,100,100,200,100,50,50,100,100,200,200,50,500,500,200,500,50,50,200,50,50,100,100,100,50,50,100"
        # Node 12 random traffic
dtnsim.node[12].app.enable = true
dtnsim.node[12].app.bundlesNumber = "46,46,2,5,37,17,34,50,8,26,28,39,31,22,43,44,3,38,9,3,34,50,22,36,22,36,20,16,25,4,16,40,39,46,28,36,29,25,28,48,7,46,40,27,12,21,24,50,38,48,1,38,47,19,29,33,21,45,12,47,41,33,27,41,47,19,13,33,41,1,9,4,39,13,32,25,29,1,22,24,6,12,21,46,48,37,18,8,35,2,20,7,45,4,30,6,25,7,36,35"
dtnsim.node[12].app.start = "5,69,69,16,12,46,35,62,30,60,56,85,39,87,95,74,100,33,52,55,88,61,52,100,3,38,20,95,56,59,27,22,5,94,65,74,85,96,98,88,77,53,99,12,19,51,87,27,43,49,32,21,23,46,68,28,22,96,34,57,53,42,73,90,98,73,62,7,88,13,16,100,28,31,54,3,60,5,93,46,4,99,4,98,50,79,9,11,10,23,84,61,23,22,92,24,9,1,33,74"
dtnsim.node[12].app.destinationEid = "47,111,59,1,98,81,37,15,115,106,44,18,8,49,68,79,93,15,50,106,6,102,93,103,38,109,44,84,65,29,114,49,43,51,32,42,35,35,64,83,45,50,59,17,34,116,106,27,96,17,18,106,86,92,50,73,5,86,40,2,104,106,76,1,93,9,97,5,31,119,37,85,27,72,100,55,98,21,94,4,101,90,1,70,37,25,46,32,96,13,117,80,78,56,80,116,3,6,72,50"
dtnsim.node[12].app.size = "200,100,100,100,200,200,200,500,50,100,50,500,200,200,500,100,100,200,50,200,100,100,500,100,500,100,200,100,100,200,500,100,200,50,100,500,200,50,200,50,500,100,50,500,500,100,100,100,500,200,50,200,200,500,50,200,500,500,200,100,100,500,50,500,50,50,50,500,50,100,200,50,500,100,200,100,200,50,200,500,500,500,200,100,50,50,50,100,500,500,100,200,100,500,200,50,50,50,50,200"
        # Node 13 random traffic
dtnsim.node[13].app.enable = true
dtnsim.node[13].app.bundlesNumber = "6,27,14,28,31,45,24,35,23,50,8,12,46,37,47,33,2,26,36,25,18,15,27,31,49,47,37,14,1,15,11,34,27,31,32,8,24,2,18,39,16,11,3,5,18,15,22,31,19,42,21,3,30,42,26,50,47,21,37,19,12,21,38,27,14,38,9,29,38,14,6,45,36,37,49,48,32,26,40,12,20,9,12,29,17,6,45,15,10,6,46,11,21,35,19,29,10,46,16,37"
dtnsim.node[13].app.start = "58,53,11,11,6,3,9,60,40,76,11,72,83,74,92,14,53,98,52,18,98,44,1,27,45,1,81,72,83,95,72,52,72,42,94,88,13,66,82,82,60,77,52,54,31,50,23,50,96,22,86,75,23,53,98,24,62,67,82,40,55,30,5,98,36,45,1,14,29,28,46,84,3,13,29,59,42,32,17,21,55,44,42,32,95,84,26,54,15,26,46,36,70,51,70,45,42,43,34,56"
dtnsim.node[13].app.destinationEid = "11,78,58,6,2,60,26,82,93,55,74,63,46,79,18,58,97,36,91,79,31,115,76,17,105,48,99,86,61,63,26,110,58,87,77,5,9,69,101,19,44,102,57,20,39,32,102,26,36,60,20,43,37,9,25,100,87,10,86,16,42,26,9,3,49,83,113,106,40,31,23,77,102,85,5,104,29,31,58,99,120,25,77,30,106,37,88,7,15,87,44,85,25,107,68,85,75,61,30,45"
dtnsim.node[13].app.size = "100,50,50,500,50,500,100,500,200,200,200,50,100,50,50,200,50,500,200,100,100,50,100,50,500,200,50,200,50,200,500,500,500,50,500,500,200,200,200,50,200,50,200,100,100,500,200,200,200,50,100,100,500,500,500,500,500,500,100,500,200,200,500,50,50,100,200,200,200,200,50,500,50,100,50,50,50,500,500,100,200,100,50,500,200,50,50,500,100,50,100,200,500,200,50,50,200,200,200,500"
        # Node 14 random traffic
dtnsim.node[14].app.enable = true
dtnsim.node[14].app.bundlesNumber = "32,33,34,39,36,3,11,7,10,9,19,34,31,4,28,35,16,35,46,3,6,31,12,21,26,33,32,43,10,31,35,5,5,15,50,21,46,32,24,38,12,2,1,3,20,14,41,43,33,20,35,33,45,44,40,21,17,24,45,46,30,25,37,23,49,10,7,7,5,18,21,11,36,16,28,38,49,42,49,50,28,37,20,36,22,42,38,43,20,47,7,39,3,26,47,28,9,47,44,36"
dtnsim.node[14].app.start = "37,78,96,82,10,13,57,69,38,1,40,25,77,23,9,83,15,78,13,51,35,58,39,47,25,87,18,64,38,53,36,34,88,68,82,33,10,16,53,69,87,54,24,16,31,26,96,40,20,74,40,80,57,99,59,79,92,68,43,57,94,2,80,19,66,2,41,39,54,81,10,15,35,86,28,55,75,69,49,25,68,28,82,91,10,56,87,46,7,23,92,40,28,7,40,4,15,80,18,12"
dtnsim.node[14].app.destinationEid = "59,82,100,77,96,96,117,28,62,55,102,45,112,115,12,63,21,118,75,82,32,37,39,38,54,10,19,93,37,86,120,22,7,25,68,119,71,34,10,3,42,39,88,48,8,16,34,38,3,27,101,54,25,58,50,55,46,111,65,33,82,51,13,39,18,105,22,10,81,36,99,20,31,95,104,35,70,74,38,91,93,96,73,59,12,103,3,61,101,92,53,92,19,120,20,85,33,98,108,48"
dtnsim.node[14].app.size = "50,200,500,500,200,100,50,50,100,100,200,500,500,200,200,500,50,500,100,50,100,50,500,200,50,200,50,100,200,500,50,50,50,50,200,200,50,50,50,500,50,200,50,200,200,200,100,500,500,200,50,200,500,200,100,500,50,200,100,100,100,200,100,200,100,50,500,100,50,500,500,100,200,200,200,100,500,100,200,200,100,500,500,50,50,100,50,50,200,500,200,500,100,200,50,500,100,50,100,100"
        # Node 15 random traffic
dtnsim.node[15].app.enable = true
dtnsim.node[15].app.bundlesNumber = "27,21,30,7,20,24,47,38,18,30,49,28,49,41,16,23,42,18,5,47,8,12,32,47,5,6,30,21,33,32,10,12,15,45,33,2,47,24,29,10,37,28,33,10,6,13,18,26,29,3,25,38,17,24,16,33,24,33,26,13,13,5,46,35,37,38,36,13,1,2,49,7,3,39,32,36,43,25,31,19,32,15,44,34,38,45,33,3,39,35,10,39,30,32,10,35,45,23,27,2"
dtnsim.node[15].app.start = "99,30,32,34,7,5,63,95,52,37,40,67,84,32,78,76,27,69,85,73,57,39,53,91,37,91,29,10,51,10,81,46,52,70,17,1,83,41,53,2,46,1,14,46,19,40,51,98,44,1,73,1,36,40,21,37,63,100,83,56,57,73,10,100,28,64,20,40,44,4,43,20,65,46,10,87,79,70,64,91,14,50,84,94,24,68,59,33,60,68,82,27,74,23,44,43,9,95,61,76"
dtnsim.node[15].app.destinationEid = "8,12,75,18,45,42,24,48,14,111,27,22,92,45,89,69,74,73,98,116,46,24,83,46,9,72,35,67,53,65,14,65,86,30,118,5,56,80,38,30,45,79,4,45,3,90,98,86,14,76,96,77,81,61,110,11,89,48,98,105,21,29,116,11,79,8,79,37,11,56,106,84,113,59,92,29,23,94,96,93,24,18,80,117,18,1,47,24,70,6,18,67,101,98,101,79,21,63,7,66"
dtnsim.node[15].app.size = "500,500,100,200,500,100,500,200,100,100,200,100,500,200,100,100,50,100,50,200,200,500,500,50,50,100,100,200,500,100,50,50,100,500,500,100,200,200,100,100,200,50,50,200,50,500,50,500,50,200,500,100,50,500,50,100,200,500,50,100,200,200,50,200,500,500,500,100,500,200,100,500,50,50,50,200,200,200,50,100,100,100,50,50,200,50,200,100,50,200,200,50,500,200,500,50,200,500,50,200"
        # Node 16 random traffic
dtnsim.node[16].app.enable = true
dtnsim.node[16].app.bundlesNumber = "12,39,42,28,37,38,6,32,4,16,47,45,39,39,9,31,48,46,5,29,32,33,49,2,35,9,30,15,24,35,19,21,15,20,44,34,5,30,44,49,27,17,27,30,22,8,50,42,40,12,1,31,16,41,41,20,31,3,12,49,47,8,48,32,34,48,33,2,8,23,42,6,12,41,21,39,11,33,47,47,46,33,3,2,15,16,33,4,24,38,48,23,35,50,21,39,44,20,32,37"
dtnsim.node[16].app.start = "50,65,96,95,65,83,29,17,5,39,16,95,28,25,56,46,74,19,19,10,25,37,39,8,40,98,42,23,7,62,70,26,21,13,29,84,22,26,58,77,22,23,15,61,58,76,11,83,22,29,24,79,52,69,60,11,64,48,66,84,56,17,79,95,43,41,21,58,27,41,78,45,97,25,8,18,52,87,94,23,64,93,59,39,5,62,16,9,51,19,60,87,27,28,43,17,72,11,42,61"
dtnsim.node[16].app.destinationEid = "28,35,89,9,44,1,95,84,84,41,98,95,15,103,11,92,26,22,75,42,110,71,92,88,112,55,93,17,111,69,36,1,11,88,116,55,117,85,93,120,96,111,85,91,23,88,59,2,105,118,86,97,19,49,101,104,4,22,1,41,4,24,98,61,3,89,113,99,8,29,96,102,51,56,89,107,10,82,54,18,39,77,93,110,109,7,17,113,109,103,27,71,88,75,61,5,113,87,120,37"
dtnsim.node[16].app.size = "100,100,100,100,200,50,100,500,500,200,100,50,100,100,100,500,50,50,200,200,50,200,50,50,500,50,50,100,50,200,100,500,500,100,100,100,100,50,100,50,100,50,200,100,100,500,100,100,200,200,50,50,500,50,100,50,100,200,200,200,100,100,200,50,500,50,500,50,100,50,200,500,50,50,500,50,500,50,200,50,500,500,100,100,50,200,200,100,200,200,200,50,100,100,50,50,50,100,200,500"
        # Node 17 random traffic
dtnsim.node[17].app.enable = true
dtnsim.node[17].app.bundlesNumber = "40,21,40,25,41,30,28,2,9,8,13,36,50,1,8,27,2,45,41,35,8,49,2,1,47,28,10,30,27,10,13,9,26,30,16,48,31,35,38,22,10,13,10,25,4,3,44,21,17,43,19,19,39,26,21,37,40,37,19,46,23,31,31,4,22,47,48,30,22,21,15,27,1,24,16,13,26,49,42,7,44,16,26,27,16,45,20,45,30,6,12,32,47,29,5,30,38,9,3,21"
dtnsim.node[17].app.start = "4,33,86,30,49,17,16,4,85,30,46,96,33,100,48,16,47,45,87,27,56,11,62,17,65,60,80,77,51,8,84,93,44,9,42,72,69,56,77,85,43,73,74,23,46,10,48,51,47,83,47,77,82,10,93,74,10,33,32,70,29,30,14,3,85,63,23,40,69,21,24,78,58,6,92,31,43,13,24,65,23,63,51,6,100,52,92,86,44,14,41,55,96,96,34,93,72,20,94,85"
dtnsim.node[17].app.destinationEid = "4,34,41,84,68,78,37,13,84,94,45,106,90,51,92,6,31,111,76,21,35,113,108,75,112,110,99,76,51,51,52,57,117,47,19,26,55,119,115,25,3,30,4,11,112,83,112,99,57,75,88,95,9,80,40,64,48,77,3,118,64,10,68,56,120,63,41,56,5,91,106,11,118,59,9,83,40,109,41,29,6,49,105,48,38,109,40,115,116,27,110,41,60,86,10,111,104,89,27,90"
dtnsim.node[17].app.size = "500,100,200,500,50,200,100,500,100,500,100,200,100,50,500,100,100,50,50,200,500,200,100,500,200,50,100,50,500,100,500,500,500,100,100,200,100,500,50,500,200,200,100,50,50,100,50,100,500,100,50,50,50,500,200,100,50,500,50,100,100,100,100,100,200,500,100,50,100,200,200,500,100,50,100,200,100,200,500,50,50,500,100,500,200,50,200,500,100,500,100,50,100,50,50,50,500,50,50,100"
        # Node 18 random traffic
dtnsim.node[18].app.enable = true
dtnsim.node[18].app.bundlesNumber = "44,3,17,42,43,19,32,49,3,2,10,21,35,50,30,28,3,23,3,26,22,3,47,35,50,36,27,45,10,15,19,45,49,4,44,14,16,27,8,20,20,9,16,29,29,6,31,9,25,37,34,46,9,8,42,38,7,20,25,37,47,27,4,22,38,44,2,10,9,6,5,31,29,14,31,24,18,9,50,29,42,11,19,33,39,20,50,38,42,9,9,15,50,34,29,31,31,26,47,43"
dtnsim.node[18].app.start = "66,100,91,97,69,34,91,53,75,64,6,92,94,56,81,47,99,16,25,6,74,78,11,80,99,81,83,91,8,92,8,7,22,6,26,38,80,68,9,36,39,76,59,2,18,62,7,30,43,45,100,82,53,33,50,15,55,58,10,62,5,66,38,7,90,15,39,13,53,92,22,34,30,24,39,23,44,75,96,80,97,70,53,60,65,98,48,64,77,39,88,12,39,34,62,74,97,24,53,65"
dtnsim.node[18].app.destinationEid = "95,88,67,98,63,4,24,87,26,97,86,39,106,93,8,44,23,87,98,49,58,65,61,88,46,76,3,30,113,43,33,99,54,86,92,53,67,107,88,42,92,61,73,51,110,71,74,112,37,17,66,34,101,67,79,71,32,3,90,2,96,11,85,9,103,107,53,94,90,94,64,81,17,31,101,105,11,72,2,58,71,76,44,36,84,65,100,83,63,112,14,69,57,46,108,92,7,2,81,49"
dtnsim.node[18].app.size = "50,50,200,100,100,50,200,200,100,500,500,50,100,200,100,500,200,500,50,500,200,100,200,500,500,200,100,500,100,50,50,50,500,50,50,50,100,200,50,500,500,50,100,500,50,50,50,500,500,50,200,100,200,200,500,100,500,200,500,50,50,200,100,50,100,200,100,200,200,500,500,50,200,100,200,100,500,50,100,100,100,100,50,500,50,500,500,50,100,500,200,200,200,50,100,50,50,200,200,200"
        # Node 19 random traffic
dtnsim.node[19].app.enable = true
dtnsim.node[19].app.bundlesNumber = "14,2,41,37,10,1,35,36,45,9,49,42,45,14,20,42,29,34,17,9,6,1,3,24,29,14,27,25,50,11,1,25,4,28,28,33,38,35,8,6,22,13,10,16,14,6,34,3,14,33,42,26,32,6,17,33,45,45,3,39,5,11,6,48,31,37,39,22,33,45,4,30,27,28,45,32,19,22,26,2,13,14,13,37,47,47,1,21,46,23,32,22,48,1,6,36,21,43,39,48"
dtnsim.node[19].app.start = "38,27,92,49,11,4,89,13,54,92,42,49,56,57,39,90,93,31,100,4,62,55,84,92,60,68,7,14,77,69,87,9,25,100,5,39,99,93,23,94,25,59,17,19,92,53,32,97,2,69,64,2,36,46,78,82,3,66,46,98,56,22,87,99,66,51,72,88,70,91,52,54,95,22,73,83,72,75,70,89,18,39,18,30,74,3,5,1,64,54,60,46,14,52,85,88,35,40,19,87"
dtnsim.node[19].app.destinationEid = "8,38,17,89,77,27,58,62,103,106,15,102,77,39,113,79,52,115,76,86,81,45,68,114,87,120,120,30,92,109,85,105,99,118,46,112,83,13,86,27,109,93,82,120,58,39,98,13,90,79,120,50,56,73,67,82,20,27,56,9,10,106,66,107,27,101,50,96,77,98,109,100,54,45,113,12,78,74,49,2,63,77,93,23,7,40,94,74,92,92,20,57,83,13,48,72,81,97,105,90"
dtnsim.node[19].app.size = "200,100,50,200,50,500,100,500,500,500,200,100,50,200,100,100,100,200,50,100,500,100,50,500,100,500,50,100,200,50,200,500,500,100,100,50,100,100,500,50,100,50,50,500,200,500,200,100,200,50,100,200,500,500,500,500,500,50,200,200,50,100,200,100,100,200,500,50,50,200,100,200,500,50,200,50,100,100,50,200,200,50,50,50,50,50,500,100,200,50,500,100,50,100,50,100,200,50,200,100"
        # Node 20 random traffic
dtnsim.node[20].app.enable = true
dtnsim.node[20].app.bundlesNumber = "50,47,6,12,24,36,36,36,48,50,20,15,27,40,5,7,42,17,36,28,35,35,48,2,30,47,37,12,10,40,33,20,40,45,23,37,45,33,11,40,17,2,30,14,37,7,29,10,40,8,23,9,48,38,36,37,48,40,14,49,12,17,49,42,32,9,30,50,27,12,8,7,50,19,32,34,17,17,30,11,24,43,12,50,34,10,17,14,4,37,8,22,29,37,22,4,32,50,18,29"
dtnsim.node[20].app.start = "100,96,74,18,75,23,6,92,55,15,54,35,19,99,89,42,83,53,68,33,65,98,21,17,10,85,66,26,5,17,13,83,55,77,15,66,100,4,37,49,57,73,27,82,17,26,87,50,5,67,24,7,96,37,85,49,54,64,4,79,79,97,82,53,94,10,34,73,66,93,99,4,64,47,14,59,17,8,27,67,88,33,85,68,15,47,50,14,3,63,22,21,97,2,11,39,90,69,80,94"
dtnsim.node[20].app.destinationEid = "5,118,23,19,82,54,68,89,44,89,83,93,91,84,71,23,59,111,120,46,106,92,68,61,106,32,119,118,57,46,43,9,91,109,51,63,71,43,18,112,58,51,55,37,89,53,114,30,118,22,33,91,112,106,79,57,22,63,35,101,25,13,61,97,22,87,2,95,11,6,31,40,109,65,3,109,88,120,79,110,86,38,8,111,4,88,12,116,25,9,83,36,59,81,7,98,3,72,50,18"
dtnsim.node[20].app.size = "50,100,50,200,200,200,100,50,100,100,200,500,200,500,200,50,50,50,50,200,50,50,50,500,500,50,200,500,50,500,200,100,500,50,200,50,200,500,200,500,200,100,100,500,500,100,50,500,100,100,50,200,100,200,200,200,100,100,200,500,500,200,200,50,50,100,500,500,500,500,200,100,500,50,50,50,50,50,200,200,500,50,500,200,100,50,200,200,500,200,50,50,100,50,100,50,50,200,50,200"
        # Node 21 random traffic