[General]
network = src.dtnsim										
repeat = 1
allow-object-stealing-on-deletion = true

# Simulation end time
sim-time-limit = 84600s

# Nodes quantity (identifiers (EiDs) matches their index, EiD=0 is ignored)			
dtnsim.nodesNumber = 180
dtnsim.node[*].icon = "satellite"

# Nodes's failure rates
dtnsim.node[*].fault.enable = true
dtnsim.node[*].fault.meanTTF = 40s
dtnsim.node[*].fault.meanTTR = 10s

# Mobility
dtnsim.node[*].hasMobility = true
dtnsim.node[*].norad.satIndex = parentIndex()
dtnsim.node[*].norad.satName = "sat"
**.updateInterval = 20s
**.numOfSats = 180
**.satPerPlane = 15
**.altitude = 540
**.planes = 12
**.phaseOffset = 7

dtnsim.node[*].dtn.routing = "antop"
dtnsim.node[*].dtn.printRoutingDebug = true

# --- Random Traffic Configuration ---
# Node 1 random traffic
dtnsim.node[1].app.enable = true
dtnsim.node[1].app.bundlesNumber = "44,37,31,21,19,38,18,41,40,25,46,37,26,5,33,17,19,6,25,40,39,21,46,6,33,26,15,5,9,46,46,40,34,34,50,30,39,6,14,38,36,40,18,8,6,8,25,17,25,39,5,43,45,45,44,7,50,1,48,2,25,48,25,30,33,45,13,45,36,15,8,23,2,30,5,32,39,39,40,30,5,4,24,6,40,27,31,6,6,6,32,12,42,11,7,41,36,42,25,41"
dtnsim.node[1].app.start = "25,61,70,38,62,55,76,81,61,60,56,35,60,44,39,54,48,31,29,18,87,58,94,86,15,78,87,92,31,18,57,3,76,94,4,27,7,42,37,84,55,51,85,10,63,19,35,41,75,89,40,67,4,83,98,64,31,11,38,87,28,68,81,4,97,74,14,81,78,56,10,33,4,47,31,3,62,25,94,69,33,4,90,74,3,27,43,82,8,41,4,49,94,26,13,87,11,100,18,38"
dtnsim.node[1].app.destinationEid = "139,109,37,99,46,15,16,174,118,168,162,174,59,99,21,114,77,154,70,147,136,93,25,24,151,159,97,67,51,61,129,63,175,4,21,51,129,43,106,30,127,135,32,15,168,6,20,130,170,48,134,156,36,7,149,155,83,15,42,166,65,8,122,111,154,133,6,121,28,121,15,13,64,170,67,122,145,67,64,156,132,132,130,85,106,45,119,112,10,49,119,15,44,104,172,2,127,62,162,92"
dtnsim.node[1].app.size = "100,500,500,100,200,500,500,200,100,500,50,200,100,500,200,100,50,500,500,500,500,200,500,50,200,500,100,200,50,50,50,500,100,50,500,200,500,200,500,100,200,200,50,50,100,50,200,200,100,100,50,100,100,500,200,100,200,200,200,200,200,200,500,50,100,500,200,200,500,100,200,100,100,100,200,200,100,100,50,200,100,50,500,100,200,200,200,500,50,100,500,50,500,100,500,100,50,500,50,200"
# Node 2 random traffic
dtnsim.node[2].app.enable = true
dtnsim.node[2].app.bundlesNumber = "42,45,25,8,20,37,24,12,35,14,43,16,22,17,33,29,41,2,2,41,12,36,7,1,39,1,1,17,48,33,33,19,30,20,48,3,30,5,24,40,15,17,22,33,27,35,36,15,1,28,3,41,18,22,30,42,30,43,47,8,28,34,39,31,27,40,40,13,43,50,11,28,10,41,24,30,18,48,34,33,7,19,41,16,1,29,25,12,14,13,24,12,42,13,9,48,44,4,40,5"
dtnsim.node[2].app.start = "52,2,79,56,74,59,54,91,85,67,18,1,52,31,99,2,47,47,54,1,54,46,62,75,92,52,86,75,72,28,75,78,31,97,33,39,78,34,44,92,95,36,94,76,79,62,67,67,61,7,39,48,48,20,97,57,70,83,70,86,79,84,68,47,52,82,53,30,93,29,53,98,100,80,40,65,24,66,10,53,35,77,99,7,13,25,73,29,49,40,81,6,69,61,63,28,81,36,80,52"
dtnsim.node[2].app.destinationEid = "80,26,64,19,142,25,34,128,99,113,62,65,76,66,50,145,76,144,56,131,108,103,34,43,169,22,18,161,127,42,45,54,5,118,3,22,24,13,143,174,148,9,133,35,104,77,155,101,157,57,4,58,62,93,147,136,112,79,97,53,164,120,102,134,64,1,122,82,158,25,104,165,86,89,173,39,92,144,71,82,75,109,26,45,129,122,176,12,104,68,29,39,121,53,113,59,53,139,119,23"
dtnsim.node[2].app.size = "50,100,200,200,100,500,50,500,50,200,500,100,500,50,500,500,200,50,100,50,500,100,50,500,500,50,500,50,100,200,100,500,500,500,50,200,500,500,100,100,50,50,100,200,200,200,200,100,200,500,100,200,100,500,200,50,100,100,200,500,100,500,200,100,100,200,50,200,100,50,100,50,500,50,100,500,50,100,100,500,50,200,100,200,100,200,200,200,100,50,200,50,500,200,500,100,50,500,200,50"
# Node 3 random traffic
dtnsim.node[3].app.enable = true
dtnsim.node[3].app.bundlesNumber = "32,47,47,24,39,45,3,1,39,9,24,1,2,11,14,44,9,39,40,39,20,34,30,24,40,2,27,36,12,22,20,38,18,14,8,41,33,1,5,23,33,49,13,41,21,47,18,41,50,37,1,27,49,40,32,3,28,4,50,7,18,34,45,37,46,38,28,13,35,17,22,17,27,16,38,37,11,17,28,24,14,49,50,1,13,24,12,43,47,13,21,34,41,47,34,4,2,13,14,21"
dtnsim.node[3].app.start = "11,75,74,48,5,2,55,66,7,84,92,73,53,72,29,94,43,88,5,70,21,64,25,17,97,91,78,91,1,55,2,1,17,1,57,45,24,22,85,32,48,80,76,34,67,27,60,50,6,42,100,97,88,53,41,54,72,32,64,46,82,7,63,65,16,59,90,55,86,37,62,93,17,90,76,89,48,87,55,34,69,58,58,3,23,72,58,61,29,18,17,13,74,57,74,49,48,53,51,5"
dtnsim.node[3].app.destinationEid = "123,6,28,83,24,173,60,28,12,101,71,107,157,68,17,64,171,112,166,107,32,29,148,101,7,179,61,177,156,110,64,173,151,108,50,159,1,99,42,135,117,21,38,46,47,66,136,112,168,166,115,100,71,6,22,26,46,158,5,167,103,7,171,13,64,70,43,144,120,157,161,85,174,88,159,109,38,151,64,120,173,113,171,110,120,80,118,55,95,170,147,62,6,43,48,4,42,38,95,94"
dtnsim.node[3].app.size = "200,500,500,50,50,50,500,500,500,100,100,50,50,200,500,200,50,50,500,50,500,50,100,200,500,200,200,200,200,50,100,200,50,100,200,500,500,100,50,200,50,50,100,200,200,100,500,500,200,100,50,100,200,100,200,200,500,100,50,100,100,100,100,200,50,200,200,50,500,200,200,50,500,50,100,100,200,100,50,50,100,50,100,50,200,500,500,100,100,500,500,500,100,200,100,200,50,100,500,200"
# Node 4 random traffic
dtnsim.node[4].app.enable = true
dtnsim.node[4].app.bundlesNumber = "25,33,8,4,27,3,14,50,46,50,6,17,4,29,43,9,18,3,17,12,24,13,44,33,19,47,38,31,44,8,24,6,14,39,3,23,49,11,15,43,38,43,8,49,38,9,19,2,7,9,28,35,20,7,28,30,5,3,45,25,30,31,31,49,3,31,24,7,6,16,36,7,48,15,29,20,37,9,30,22,35,39,29,18,39,39,16,16,4,36,37,20,9,23,25,13,10,14,47,43"
dtnsim.node[4].app.start = "76,11,86,70,58,64,5,31,85,43,19,34,37,37,96,81,50,45,36,70,39,85,13,3,14,12,93,62,60,50,12,51,27,70,90,25,60,95,35,5,14,57,43,33,3,84,51,25,96,34,1,42,45,5,12,55,67,28,32,20,17,16,95,94,18,54,58,81,46,3,34,73,4,69,84,78,89,35,87,57,68,95,94,38,26,80,11,68,89,33,54,13,40,2,40,57,17,31,19,8"
dtnsim.node[4].app.destinationEid = "86,58,11,110,125,154,175,158,69,102,35,145,178,120,101,108,64,153,145,117,123,61,128,44,98,154,133,31,45,15,55,165,149,117,54,68,49,104,28,47,112,57,39,20,89,1,171,32,127,129,111,166,126,17,34,74,135,18,8,58,132,38,102,146,55,171,1,157,151,174,143,155,118,66,145,56,73,114,84,15,142,107,44,48,32,180,23,157,137,137,156,58,144,124,175,84,62,153,90,117"
dtnsim.node[4].app.size = "100,100,100,100,100,200,100,200,50,50,500,50,200,100,50,500,500,50,200,200,200,200,100,500,500,50,50,50,50,100,50,500,200,500,100,100,100,200,50,50,200,500,100,100,100,50,200,500,100,200,100,500,100,200,200,50,200,100,200,100,100,50,200,500,500,500,500,100,100,50,50,50,200,200,50,500,50,50,500,200,100,500,200,100,50,200,500,50,100,100,100,500,100,200,200,200,50,200,200,200"
# Node 5 random traffic
dtnsim.node[5].app.enable = true
dtnsim.node[5].app.bundlesNumber = "5,29,37,8,2,16,27,33,46,47,49,12,35,9,25,49,39,48,8,40,19,13,15,18,13,4,30,23,10,50,21,30,29,20,24,8,47,32,41,45,8,26,36,45,12,35,15,50,31,49,43,4,20,33,14,40,32,16,21,25,25,9,10,50,43,44,6,8,9,12,29,49,40,42,39,29,9,20,30,49,22,48,46,34,25,25,26,20,26,19,42,12,44,21,25,19,11,16,15,3"
dtnsim.node[5].app.start = "27,18,8,54,54,2,75,52,22,11,3,98,43,9,50,92,96,49,11,64,6,46,47,71,95,68,57,53,16,35,5,38,75,78,60,80,73,11,92,31,49,1,52,33,93,52,41,88,53,88,15,49,41,94,20,43,6,16,85,59,35,13,95,3,19,72,83,85,52,32,57,35,35,14,79,7,56,67,72,80,70,41,80,49,62,47,17,49,93,50,93,56,97,28,76,43,76,65,81,36"
dtnsim.node[5].app.destinationEid = "150,49,41,157,107,149,134,130,122,36,142,40,48,160,120,148,95,159,99,86,85,43,143,21,128,163,47,27,7,64,167,55,93,118,154,129,116,135,47,178,90,40,27,96,71,70,94,137,116,53,98,59,125,98,15,82,31,171,115,117,74,98,1,145,85,98,111,151,128,161,47,89,150,71,26,164,129,96,27,25,7,165,143,178,60,52,13,83,11,133,128,160,150,36,171,155,88,166,157,136"
dtnsim.node[5].app.size = "200,500,200,500,200,50,500,100,500,100,200,50,100,50,200,50,500,50,100,50,100,100,50,200,50,100,50,100,500,200,500,100,500,200,200,200,50,50,100,100,50,500,100,200,200,100,100,500,500,100,100,50,50,100,500,200,200,50,50,100,500,100,200,100,100,100,500,500,100,200,500,200,200,50,200,100,100,100,500,200,50,200,500,500,50,50,50,500,200,500,50,500,50,50,500,500,500,100,100,500"
# Node 6 random traffic
dtnsim.node[6].app.enable = true
dtnsim.node[6].app.bundlesNumber = "27,20,45,37,6,15,13,35,22,41,6,15,12,44,21,23,11,50,11,36,40,49,36,45,3,9,42,31,9,29,33,4,25,6,33,1,28,4,32,6,17,38,37,15,9,26,23,24,45,4,22,41,43,24,47,9,50,25,50,45,44,50,47,3,10,11,8,45,45,9,24,13,16,28,9,42,6,8,5,6,39,22,4,44,42,36,5,37,20,42,34,47,19,20,41,31,9,1,31,38"
dtnsim.node[6].app.start = "46,71,39,65,77,18,100,80,27,97,76,11,94,22,16,67,9,92,86,60,29,47,56,47,36,23,52,11,84,35,98,34,48,31,7,51,66,95,58,79,54,72,38,80,78,76,82,43,48,39,98,25,31,98,1,55,68,87,66,44,1,60,44,22,70,86,28,22,43,93,36,82,11,78,5,34,87,63,73,52,92,23,68,49,73,15,22,62,93,9,62,9,34,97,13,63,80,6,55,61"
dtnsim.node[6].app.destinationEid = "38,119,37,177,33,104,60,10,161,78,75,155,140,169,31,61,136,177,88,45,45,104,68,77,136,54,107,180,141,59,126,137,45,92,171,122,48,134,149,78,61,150,15,124,151,45,159,46,51,152,153,47,8,80,168,125,63,102,28,134,79,155,3,108,41,145,84,161,97,24,80,97,168,97,121,166,111,177,65,74,113,73,59,106,154,137,25,95,134,109,23,137,75,163,34,74,53,133,94,96"
dtnsim.node[6].app.size = "200,200,500,500,200,200,50,50,100,200,200,200,500,100,50,500,200,200,50,200,200,500,500,50,100,50,500,50,200,500,200,50,50,50,50,100,50,500,500,500,50,500,50,200,50,100,50,500,50,500,50,200,50,100,100,100,100,100,100,100,100,100,500,500,200,500,200,50,500,50,100,100,200,50,500,100,100,500,500,200,200,50,50,50,200,100,100,500,50,50,500,200,50,200,200,200,200,50,100,500"
# Node 7 random traffic
dtnsim.node[7].app.enable = true
dtnsim.node[7].app.bundlesNumber = "4,23,35,34,11,45,24,42,38,17,34,44,36,47,14,48,3,8,14,37,18,40,6,45,34,30,26,14,29,24,12,5,39,22,48,36,36,37,4,27,27,12,38,49,27,36,7,31,31,47,32,24,47,43,36,33,30,19,16,2,6,42,11,28,10,4,36,23,20,3,27,9,35,44,32,35,43,18,48,4,7,45,26,39,26,9,45,16,7,36,12,9,3,39,24,47,9,17,25,24"
dtnsim.node[7].app.start = "31,89,10,49,53,83,39,91,9,3,99,96,94,63,40,1,91,20,67,70,39,86,52,3,49,6,23,91,4,97,2,90,90,92,92,19,90,7,91,67,15,25,16,84,55,58,93,33,77,12,42,40,25,49,90,43,8,63,11,70,47,32,45,64,76,10,69,22,73,45,32,51,73,96,70,77,86,35,63,8,38,33,20,18,57,92,12,1,89,2,87,68,13,65,2,3,46,91,53,78"
dtnsim.node[7].app.destinationEid = "142,109,164,53,22,78,131,166,114,140,69,93,104,166,65,9,23,11,122,123,36,46,38,156,117,119,33,159,130,169,114,14,72,134,28,86,94,73,94,127,69,26,81,166,45,65,92,41,16,107,76,164,88,1,31,53,56,18,136,162,160,56,127,4,149,102,64,151,60,44,33,162,41,124,129,131,37,128,142,94,92,146,81,156,8,12,8,146,76,120,88,67,57,48,74,163,105,26,133,119"
dtnsim.node[7].app.size = "200,500,500,100,100,100,200,50,200,50,500,500,100,500,50,200,200,100,500,200,100,500,200,200,200,100,50,50,100,200,500,100,200,500,200,500,500,50,200,500,500,500,200,50,100,50,50,100,500,200,100,50,200,500,200,200,50,500,50,100,100,100,50,50,100,500,200,50,50,500,500,100,50,50,500,200,50,50,200,100,200,200,50,50,500,500,500,50,500,500,50,50,50,50,500,200,200,200,100,200"
# Node 8 random traffic
dtnsim.node[8].app.enable = true
dtnsim.node[8].app.bundlesNumber = "8,26,4,25,44,1,11,49,10,44,48,23,12,14,41,14,30,3,30,46,18,37,1,1,13,5,27,21,39,24,7,48,49,17,46,48,1,16,5,10,19,21,41,36,12,1,23,23,21,25,4,16,14,46,5,18,6,6,18,11,27,46,7,6,33,28,7,23,47,10,37,27,50,23,48,27,26,18,2,9,9,46,29,5,20,28,5,41,27,26,18,24,11,27,47,9,16,4,27,43"
dtnsim.node[8].app.start = "40,50,27,5,8,28,99,20,14,2,65,46,19,76,38,70,9,91,39,13,25,72,53,24,67,6,91,44,91,11,47,82,85,19,17,66,93,37,18,23,97,18,77,8,52,36,72,78,18,82,2,24,47,19,7,37,45,27,4,2,86,2,80,26,63,75,59,83,38,14,90,32,25,86,29,9,69,4,62,79,60,91,24,6,50,61,11,46,89,34,96,43,59,71,84,81,14,44,80,93"
dtnsim.node[8].app.destinationEid = "58,178,77,149,71,79,11,109,90,119,177,109,174,159,171,152,138,136,43,83,41,127,175,133,104,64,49,10,72,25,97,58,39,89,48,13,49,126,27,38,16,19,23,118,172,144,5,170,33,165,130,57,60,48,11,146,110,66,18,144,145,85,9,162,101,21,79,132,107,75,21,62,138,31,131,101,137,75,72,77,33,71,22,31,106,75,58,100,124,165,129,133,65,48,133,22,167,76,17,147"
dtnsim.node[8].app.size = "200,100,500,50,500,50,100,500,500,500,50,500,200,200,200,200,200,50,100,50,50,200,500,100,50,200,200,50,100,100,100,500,200,50,500,50,50,50,200,200,50,500,50,50,500,50,500,200,500,50,500,50,200,100,200,500,50,200,50,50,50,50,500,200,500,200,200,200,50,100,100,500,500,200,100,100,50,200,100,200,200,500,50,200,50,50,500,500,500,200,200,500,50,200,50,500,100,500,100,500"
# Node 9 random traffic
dtnsim.node[9].app.enable = true
dtnsim.node[9].app.bundlesNumber = "50,7,38,43,44,6,1,44,37,19,22,40,44,36,24,9,31,18,43,2,24,19,40,23,3,25,18,3,33,40,41,43,47,20,3,45,12,12,38,3,30,24,8,23,41,15,37,21,39,35,38,20,8,38,36,17,9,9,39,44,22,12,41,42,18,37,49,16,3,13,10,43,50,31,28,18,22,40,10,45,25,42,25,48,8,15,21,11,41,47,50,10,1,6,46,32,39,12,34,5"
dtnsim.node[9].app.start = "95,35,59,75,93,13,31,33,7,34,69,24,10,84,79,22,13,49,95,94,65,69,75,61,34,41,61,38,23,82,37,16,40,1,44,98,7,5,71,21,29,11,68,50,51,39,18,51,82,45,22,34,96,18,76,11,25,38,80,37,24,27,40,83,21,68,3,93,83,67,5,13,25,38,89,62,17,73,69,16,90,7,98,46,23,59,48,13,24,16,8,92,2,44,12,50,26,27,99,90"
dtnsim.node[9].app.destinationEid = "173,174,41,74,6,97,162,131,144,113,177,88,148,141,161,22,76,178,78,162,42,149,12,99,157,48,40,88,164,11,162,123,166,161,158,65,154,133,167,159,99,101,178,63,151,37,144,33,112,150,67,90,3,42,146,117,110,63,130,159,117,31,171,97,37,39,130,130,136,13,180,32,65,24,143,151,50,89,146,122,73,5,176,63,143,52,10,3,160,79,53,95,30,23,22,69,50,14,115,82"
dtnsim.node[9].app.size = "100,200,500,50,500,200,50,100,50,50,50,100,50,100,500,200,200,50,500,50,50,200,200,100,50,500,100,50,500,200,500,500,500,500,500,500,200,500,100,100,500,500,200,50,200,50,100,500,500,200,500,200,200,50,100,100,200,500,500,50,100,200,100,200,200,100,100,200,100,200,100,100,200,100,50,100,50,200,200,50,50,100,500,50,100,200,50,500,50,100,500,500,500,500,500,100,50,200,500,500"
# Node 10 random traffic
dtnsim.node[10].app.enable = true
dtnsim.node[10].app.bundlesNumber = "19,32,20,1,16,12,49,6,2,1,34,37,15,24,37,48,2,27,14,25,7,22,41,27,23,13,24,1,1,25,32,35,40,43,45,14,19,6,20,47,25,23,26,1,5,49,10,1,9,48,13,45,41,5,47,36,48,2,49,33,47,7,2,45,24,33,19,6,2,23,27,4,8,40,34,44,41,37,48,14,36,4,46,2,49,24,48,5,50,48,5,16,48,12,17,40,14,27,20,13"
dtnsim.node[10].app.start = "31,100,48,18,35,93,98,72,24,39,100,62,66,1,93,14,1,1,11,84,7,87,4,53,96,5,78,41,38,89,15,73,24,79,60,60,86,14,70,72,13,11,92,9,14,67,20,34,76,81,20,77,17,26,82,60,25,9,96,18,52,83,11,84,68,51,94,18,37,78,69,93,2,66,41,78,78,88,51,98,68,95,81,25,33,36,28,36,49,6,72,78,57,54,89,52,24,29,12,69"
dtnsim.node[10].app.destinationEid = "8,114,61,19,116,135,160,6,126,29,52,35,180,137,167,26,50,100,105,145,23,107,172,150,92,53,148,108,149,171,57,26,19,61,3,149,133,143,64,5,140,169,66,124,5,153,97,141,132,55,103,137,73,23,77,59,156,55,90,104,104,93,18,122,2,40,136,106,42,45,42,85,120,125,51,45,42,58,62,138,118,166,93,177,169,158,20,44,64,87,13,155,163,157,22,98,138,178,13,124"
dtnsim.node[10].app.size = "200,100,50,500,500,50,500,500,100,500,500,500,200,500,200,100,200,200,200,50,500,500,500,500,50,100,100,50,500,500,100,100,100,500,50,50,50,100,100,50,100,500,500,50,100,500,50,500,500,100,500,200,500,100,500,50,200,200,100,500,500,500,100,50,500,200,50,500,50,500,50,50,200,200,100,100,50,200,100,200,200,100,100,200,50,500,200,100,50,50,200,500,500,100,200,100,200,100,100,200"
# Node 11 random traffic
dtnsim.node[11].app.enable = true
dtnsim.node[11].app.bundlesNumber = "19,42,43,18,15,45,22,4,30,20,25,36,13,35,30,25,10,45,45,17,37,9,17,50,19,18,13,9,37,15,48,14,44,41,42,22,11,10,48,6,49,15,25,17,11,3,43,28,30,18,17,36,3,42,23,45,29,15,36,28,24,1,32,18,5,19,35,14,33,15,26,37,4,7,4,50,5,2,36,50,22,13,14,35,18,24,43,49,4,28,1,24,18,21,44,29,48,14,1,46"
dtnsim.node[11].app.start = "86,22,88,25,24,83,71,19,67,86,90,39,71,56,82,6,70,74,86,16,70,88,87,51,42,83,23,64,67,30,19,80,18,87,35,92,84,93,86,40,25,50,44,72,32,94,3,50,87,46,59,16,73,42,95,32,34,52,48,66,1,62,31,76,58,20,97,20,35,58,19,37,84,92,42,67,64,41,59,15,16,16,44,60,73,42,9,19,22,67,42,5,23,4,42,41,50,67,79,34"
dtnsim.node[11].app.destinationEid = "14,158,90,37,92,116,171,98,98,89,168,58,26,164,160,132,164,42,1,12,60,64,128,41,13,80,82,16,69,176,179,153,13,8,159,180,7,90,62,77,5,19,17,68,75,108,30,100,107,148,171,76,161,92,49,52,148,73,50,149,60,150,46,25,98,72,174,77,43,47,40,130,50,96,111,123,114,142,143,125,91,110,95,29,155,112,54,22,76,174,10,39,74,111,126,109,159,133,149,86"
dtnsim.node[11].app.size = "500,200,500,200,200,50,500,50,100,500,200,100,100,100,100,500,50,200,500,500,500,200,50,50,50,50,50,500,200,100,200,200,50,500,200,100,500,500,200,50,100,500,500,50,50,200,500,500,500,100,100,200,500,100,100,500,50,500,50,50,500,500,50,50,100,500,200,50,50,50,100,50,200,100,500,50,500,100,500,100,100,50,50,500,200,500,50,500,500,500,50,500,500,200,200,100,50,100,50,500"
# Node 12 random traffic
dtnsim.node[12].app.enable = true
dtnsim.node[12].app.bundlesNumber = "3,28,21,17,5,46,18,45,27,49,19,8,6,3,11,39,26,29,32,5,45,33,36,47,37,15,33,25,50,46,40,5,30,34,41,30,27,1,16,42,5,27,10,42,45,23,36,34,2,37,12,21,24,14,20,39,21,12,8,36,13,11,11,25,22,38,29,9,28,18,43,26,50,43,35,16,9,29,23,8,17,30,15,43,32,33,5,35,40,45,16,3,6,45,28,41,22,28,42,45"
dtnsim.node[12].app.start = "48,55,10,52,94,89,49,39,49,44,5,58,54,98,50,57,37,61,60,57,74,70,69,82,74,30,33,93,66,29,25,71,53,50,34,42,43,39,90,10,25,64,85,29,71,40,49,98,45,54,46,17,36,35,19,69,80,95,3,87,43,64,92,17,97,95,33,92,15,82,35,70,56,39,27,20,34,31,73,4,96,73,47,73,8,98,93,23,74,71,52,8,46,4,34,7,79,3,35,98"
dtnsim.node[12].app.destinationEid = "125,15,106,92,10,95,42,95,112,157,150,20,167,79,77,71,95,150,167,142,161,156,76,110,101,74,132,135,82,178,80,24,107,46,7,72,143,122,142,3,100,128,95,33,89,44,90,10,159,76,40,172,180,84,165,151,128,14,92,156,83,171,53,111,15,100,22,145,91,166,28,172,149,36,134,177,45,107,128,47,49,180,61,70,83,174,35,71,51,31,22,147,112,168,81,151,171,143,157,29"
dtnsim.node[12].app.size = "100,500,500,100,500,100,500,500,200,500,50,50,50,500,100,100,50,100,50,500,500,200,100,500,100,50,50,100,500,50,50,200,500,50,100,500,50,50,200,50,50,100,100,500,200,500,500,100,50,50,100,200,100,100,500,500,200,200,500,200,200,500,100,500,100,50,100,100,500,500,50,500,50,50,500,500,50,200,100,500,500,100,50,200,50,200,200,50,100,100,50,100,100,500,50,500,500,500,500,200"
# Node 13 random traffic
dtnsim.node[13].app.enable = true
dtnsim.node[13].app.bundlesNumber = "39,29,3,24,39,10,15,35,28,42,15,41,33,48,30,42,30,31,43,34,30,36,2,28,1,23,48,22,41,30,29,46,10,19,5,13,24,20,15,22,30,50,33,45,12,3,26,8,16,28,21,4,26,10,29,36,17,17,16,49,49,34,35,44,8,8,6,32,35,15,44,23,20,16,48,41,3,46,43,44,21,42,26,9,18,42,1,29,36,3,18,3,19,6,19,3,23,38,46,21"
dtnsim.node[13].app.start = "18,41,44,43,77,68,52,69,36,66,32,73,79,83,14,91,44,5,65,26,66,53,10,55,20,24,73,99,14,33,69,56,92,99,93,88,47,19,61,96,55,52,76,52,63,34,38,62,84,19,92,31,41,54,78,13,71,61,23,74,22,17,93,48,12,74,70,61,18,56,70,82,89,5,49,100,27,83,29,26,21,30,36,39,85,73,62,60,42,5,2,39,46,15,38,52,93,97,43,97"
dtnsim.node[13].app.destinationEid = "60,95,120,100,14,38,83,11,98,158,69,136,51,139,175,111,173,99,7,45,117,4,64,76,14,173,162,27,168,8,114,120,114,39,124,121,163,49,144,15,94,113,46,69,76,52,16,130,32,150,96,110,116,92,6,100,148,147,122,51,26,74,8,61,159,44,81,78,102,3,138,105,69,71,9,27,31,155,11,178,67,153,177,150,144,38,21,163,73,169,52,132,44,97,6,10,24,168,85,35"
dtnsim.node[13].app.size = "100,50,100,50,500,50,100,200,200,500,500,200,100,500,200,200,100,50,50,100,100,50,500,50,500,50,50,100,50,50,100,100,200,100,100,50,50,100,100,200,500,500,100,500,50,50,50,100,500,500,200,200,500,500,100,200,50,500,100,500,500,50,100,100,100,100,500,50,200,50,50,200,500,200,200,100,500,50,50,500,200,100,50,50,50,100,100,500,100,100,200,200,500,500,100,500,500,100,100,50"
# Node 14 random traffic
dtnsim.node[14].app.enable = true
dtnsim.node[14].app.bundlesNumber = "48,41,27,49,15,12,31,39,36,4,38,36,25,25,44,34,23,9,32,34,45,16,7,13,26,19,43,39,25,5,22,42,44,28,28,38,41,36,41,45,30,13,24,41,8,39,17,9,6,6,12,5,36,36,22,23,35,17,6,12,23,41,40,37,8,41,32,19,4,2,3,33,10,1,49,13,17,37,28,31,9,47,1,30,17,9,9,36,12,30,16,1,34,47,20,36,34,39,38,4"
dtnsim.node[14].app.start = "9,23,2,84,69,61,54,5,96,19,80,29,18,6,12,13,69,64,95,19,66,49,41,65,49,61,87,91,43,15,5,5,27,100,88,39,8,61,10,88,89,36,58,28,11,84,12,10,7,20,59,76,18,63,28,80,1,85,94,49,3,91,85,79,68,19,56,9,92,35,53,18,55,17,73,24,9,11,84,45,60,19,73,31,53,51,9,4,96,29,34,84,11,73,75,85,29,57,73,57"
dtnsim.node[14].app.destinationEid = "120,114,134,89,152,33,171,119,67,139,172,5,161,25,121,35,23,109,52,141,26,52,36,67,77,96,25,96,167,120,48,161,52,42,88,178,169,28,19,160,152,11,121,39,58,113,174,68,15,37,98,80,105,32,82,165,2,24,143,63,164,30,55,93,32,57,122,49,169,154,180,118,82,15,92,149,161,69,62,170,171,103,15,143,47,165,135,36,10,79,38,65,152,121,141,65,155,109,69,150"
dtnsim.node[14].app.size = "500,100,200,100,200,500,50,100,200,50,100,200,100,50,200,500,200,50,50,200,500,100,50,100,50,500,50,200,50,100,200,50,200,50,500,200,100,500,50,200,100,50,50,50,200,100,50,50,200,50,100,500,100,500,200,50,50,100,500,200,50,200,50,100,50,100,500,200,200,50,200,50,200,100,500,50,100,100,200,200,200,200,500,100,50,500,500,100,50,200,500,500,50,50,100,50,50,50,200,200"
# Node 15 random traffic
dtnsim.node[15].app.enable = true
dtnsim.node[15].app.bundlesNumber = "44,20,48,27,23,43,18,48,21,14,25,42,10,42,4,10,28,2,26,19,39,33,11,36,44,42,29,1,6,42,29,16,43,24,40,35,39,36,50,48,50,25,48,19,30,47,38,27,39,24,33,43,12,38,44,47,1,50,36,13,31,49,8,47,9,27,5,41,8,1,34,3,38,34,25,39,26,44,13,35,30,49,4,48,26,28,43,49,31,49,16,25,21,16,34,33,1,15,32,24"
dtnsim.node[15].app.start = "44,42,38,94,1,65,53,76,78,29,40,8,49,91,11,75,25,29,40,45,57,4,10,81,51,19,4,90,63,46,52,70,94,80,73,85,58,93,39,34,54,29,38,59,44,65,10,81,24,53,38,50,71,30,79,25,58,34,81,32,65,1,57,52,2,36,57,6,56,37,12,49,2,16,14,50,21,78,37,98,93,68,47,51,5,8,21,55,11,28,61,60,7,34,59,96,45,97,44,2"
dtnsim.node[15].app.destinationEid = "3,78,99,102,130,76,40,129,122,16,112,136,117,107,133,44,157,22,176,69,39,22,52,30,60,13,32,74,39,146,90,41,37,149,103,111,51,74,145,101,133,138,158,79,55,22,105,105,99,129,52,101,108,14,156,49,1,157,158,83,21,45,9,28,111,178,42,146,34,12,63,70,150,163,148,1,155,77,44,61,122,86,58,47,26,30,113,62,143,107,20,74,95,146,13,14,165,176,179,87"
dtnsim.node[15].app.size = "50,50,500,50,100,500,50,500,500,200,200,500,500,100,100,50,50,50,100,100,50,500,100,500,200,500,200,100,50,100,200,500,50,200,100,200,500,100,50,200,500,200,50,100,500,100,50,100,50,50,200,200,100,100,100,500,50,50,200,100,100,200,500,50,500,200,100,500,50,200,200,500,100,200,200,50,100,100,500,200,100,100,200,100,500,200,200,100,100,100,50,500,50,500,50,50,100,500,100,500"
# Node 16 random traffic
dtnsim.node[16].app.enable = true
dtnsim.node[16].app.bundlesNumber = "43,11,46,32,31,8,24,10,38,47,35,44,10,35,2,5,2,19,48,44,20,40,3,48,25,36,40,41,30,13,31,37,42,12,32,43,41,14,9,8,50,34,31,47,31,14,28,7,28,4,49,7,43,18,8,9,33,37,33,47,10,29,27,27,10,42,28,24,30,2,38,10,33,2,36,22,28,17,31,37,41,42,38,9,47,39,1,31,38,21,28,32,14,8,27,16,15,33,16,46"
dtnsim.node[16].app.start = "69,3,51,64,91,97,82,59,40,75,89,63,84,90,14,47,86,97,69,70,74,20,79,80,72,27,64,32,87,60,94,76,65,7,94,85,76,7,77,39,99,93,50,89,97,72,29,43,10,90,62,38,36,75,42,96,34,75,61,30,57,75,46,44,8,5,84,52,29,8,38,78,49,2,62,69,72,74,39,74,7,70,92,48,46,87,13,13,14,23,99,18,98,42,56,76,85,29,97,89"
dtnsim.node[16].app.destinationEid = "98,120,93,23,73,128,27,104,77,110,119,58,143,106,146,34,3,98,71,169,104,6,166,33,177,156,135,108,35,44,18,136,86,164,165,121,106,28,81,9,46,7,1,48,128,123,14,80,130,73,156,53,47,86,67,86,137,5,32,10,110,44,5,177,56,99,58,73,53,12,19,99,131,11,89,66,101,26,179,24,66,56,4,169,138,60,157,9,7,114,105,54,17,159,17,99,167,108,123,37"
dtnsim.node[16].app.size = "500,200,200,500,50,100,200,50,500,50,500,50,500,500,200,50,50,500,200,500,100,500,500,100,200,100,200,200,100,200,200,200,500,500,50,100,500,50,500,50,100,50,50,50,200,200,100,50,50,100,500,500,100,100,200,200,200,100,200,200,200,50,500,200,200,200,500,50,100,200,100,50,100,50,50,100,500,500,100,500,200,100,100,200,200,200,100,500,500,50,50,100,500,50,200,200,200,200,100,100"
# Node 17 random traffic
dtnsim.node[17].app.enable = true
dtnsim.node[17].app.bundlesNumber = "27,27,25,8,43,41,37,21,10,50,21,18,36,24,19,6,36,26,2,21,49,23,49,3,45,1,43,23,48,17,16,30,44,41,37,43,25,21,47,15,12,16,15,46,21,21,12,18,41,20,20,10,49,34,14,11,40,47,12,22,17,31,32,14,24,28,32,7,38,44,50,13,23,38,37,18,41,13,17,10,17,7,6,47,39,30,7,22,7,48,41,10,49,7,27,4,21,7,23,40"
dtnsim.node[17].app.start = "86,76,28,25,22,86,40,8,90,39,46,43,64,17,88,98,4,2,26,47,74,24,23,93,66,16,40,32,97,50,14,22,89,5,52,4,14,20,85,50,96,16,97,93,5,62,35,24,34,53,97,65,89,42,51,18,15,96,42,58,33,34,92,53,46,14,20,62,87,60,97,34,93,2,62,58,42,75,71,46,36,71,43,35,41,29,80,14,22,83,3,21,57,21,65,91,11,45,95,88"
dtnsim.node[17].app.destinationEid = "159,24,121,105,124,34,172,166,168,5,116,123,53,163,164,116,66,130,142,57,76,119,22,79,90,49,4,161,90,35,161,111,153,84,179,90,96,77,104,161,24,134,109,67,124,92,169,119,44,45,63,52,59,141,180,5,85,151,19,69,5,104,19,59,162,63,84,80,55,5,144,137,85,128,91,56,1,83,108,129,23,51,149,20,26,31,59,134,2,98,124,131,120,124,123,149,180,132,115,123"
dtnsim.node[17].app.size = "100,100,50,500,100,50,100,200,50,200,200,500,100,200,50,100,500,50,500,50,500,200,200,50,200,200,200,200,500,100,500,200,500,200,100,200,100,50,200,500,500,500,50,200,100,200,100,500,50,500,500,500,200,200,200,100,200,50,100,500,100,200,500,500,50,100,500,50,200,200,500,500,200,50,50,200,200,100,50,500,50,200,200,100,100,100,200,100,500,100,500,50,100,200,200,50,500,50,500,100"
# Node 18 random traffic
dtnsim.node[18].app.enable = true
dtnsim.node[18].app.bundlesNumber = "11,19,23,37,27,11,27,8,27,43,13,4,41,16,20,10,38,49,44,5,33,45,15,46,18,1,33,11,18,13,9,18,46,42,31,28,20,1,41,49,17,24,29,4,5,10,38,18,13,42,18,29,50,12,12,50,31,48,1,23,27,3,49,19,27,47,29,19,36,16,36,12,43,50,42,46,24,47,18,19,11,34,48,25,40,44,15,32,49,5,38,26,37,16,27,1,34,7,6,39"
dtnsim.node[18].app.start = "62,43,83,63,11,45,64,11,78,50,37,16,50,74,87,76,59,13,66,79,82,46,73,9,58,22,81,68,10,22,32,76,59,68,37,59,12,96,79,79,13,38,26,37,94,31,10,74,32,86,55,82,93,7,5,9,43,87,75,81,27,17,42,10,40,32,65,33,72,20,65,95,20,100,13,53,51,54,40,67,79,78,63,72,100,94,80,33,13,96,97,91,95,55,88,82,36,31,26,94"
dtnsim.node[18].app.destinationEid = "64,150,170,143,25,32,92,142,158,6,124,39,105,68,35,69,103,142,5,132,136,3,113,64,7,56,161,133,146,8,60,130,95,88,176,141,177,77,86,138,50,114,102,19,124,3,140,30,161,63,154,106,113,91,161,141,53,158,108,159,85,131,142,81,162,70,31,131,56,154,12,137,137,125,154,89,12,2,54,147,103,54,158,57,174,177,176,100,116,123,158,144,69,107,11,116,168,12,179,142"
dtnsim.node[18].app.size = "50,500,100,200,200,200,100,200,200,50,50,200,50,200,100,500,200,500,500,200,500,100,50,500,100,200,500,500,500,50,500,500,500,500,200,100,100,200,50,500,50,100,500,50,50,50,100,200,50,200,200,50,100,100,100,200,100,50,50,100,100,500,500,100,100,50,200,200,100,200,200,500,100,100,50,200,100,100,200,50,50,500,100,100,50,100,500,200,500,50,100,50,100,500,100,500,200,500,50,500"
# Node 19 random traffic
dtnsim.node[19].app.enable = true
dtnsim.node[19].app.bundlesNumber = "12,9,49,22,39,12,3,1,42,30,22,27,1,23,45,14,41,18,27,38,40,45,9,25,8,34,7,35,28,18,9,34,5,35,41,27,48,39,50,15,24,36,36,47,3,13,19,38,43,38,38,47,26,45,10,2,12,18,10,29,23,18,13,2,30,41,34,4,37,43,33,8,2,4,11,23,38,36,36,15,36,1,2,42,19,35,36,37,48,40,13,30,24,17,6,22,6,11,19,14"
dtnsim.node[19].app.start = "60,13,51,1,35,46,60,13,83,66,8,13,92,16,47,78,100,30,50,2,8,25,100,36,55,48,12,64,55,38,4,96,70,78,73,2,21,77,21,89,75,49,12,80,64,24,96,43,66,7,7,69,71,9,12,53,83,2,19,50,85,75,81,11,70,99,81,96,66,7,94,33,41,26,10,77,12,4,20,95,82,47,95,35,17,71,50,17,66,69,58,96,97,71,81,80,26,48,19,38"
dtnsim.node[19].app.destinationEid = "151,57,106,95,69,7,130,6,94,56,109,178,91,25,5,62,134,22,81,30,17,172,85,34,1,76,163,115,97,174,171,33,157,60,69,172,147,14,115,178,12,86,76,59,127,27,174,45,99,114,15,90,90,58,75,111,26,40,168,168,97,68,77,103,53,137,54,88,117,33,59,106,119,142,131,51,20,70,139,33,106,81,60,35,89,121,14,12,84,125,21,158,9,146,58,98,58,10,91,164"
dtnsim.node[19].app.size = "50,200,50,200,100,50,200,500,200,500,500,100,500,200,50,200,200,50,500,100,50,100,500,500,50,100,50,200,200,100,50,200,500,200,50,100,500,100,100,100,50,50,100,100,50,50,100,50,500,50,500,50,100,200,500,100,200,100,500,100,100,500,200,100,500,500,50,500,50,500,200,500,50,200,200,50,200,200,100,100,200,500,50,100,200,500,50,100,200,100,500,50,500,500,100,50,100,100,100,50"
# Node 20 random traffic
dtnsim.node[20].app.enable = true
dtnsim.node[20].app.bundlesNumber = "33,20,49,24,40,35,25,46,28,38,12,36,47,29,30,37,45,30,10,32,48,21,13,37,44,6,31,14,18,19,22,47,10,11,11,20,26,38,19,3,25,18,49,26,21,33,49,17,44,4,29,5,48,22,18,39,38,12,39,9,2,7,29,27,14,1,41,47,41,31,41,6,19,30,22,9,23,43,14,29,1,21,13,5,4,4,46,28,1,44,32,28,14,25,7,31,20,14,8,21"
dtnsim.node[20].app.start = "70,92,39,49,99,19,36,62,76,16,58,68,72,14,28,44,16,26,34,17,92,59,95,36,69,92,88,71,87,75,21,59,90,37,86,50,27,53,79,8,35,84,4,20,41,64,78,9,96,19,88,68,28,51,89,95,65,13,79,52,79,17,38,34,93,39,25,51,15,5,9,76,55,63,25,61,38,78,93,14,62,53,21,7,56,58,96,24,64,31,98,46,53,21,84,97,7,44,58,5"