[General]
network = src.dtnsim										
repeat = 1
allow-object-stealing-on-deletion = true

# Simulation end time
sim-time-limit = 84600s

# Nodes quantity (identifiers (EiDs) matches their index, EiD=0 is ignored)			
dtnsim.nodesNumber = 360
dtnsim.node[*].icon = "satellite"

# Nodes's failure rates
dtnsim.node[*].fault.enable = false
dtnsim.node[*].fault.meanTTF = 0s
dtnsim.node[*].fault.meanTTR = 0s

# Mobility
dtnsim.node[*].hasMobility = true
dtnsim.node[*].noradModule.satIndex = parentIndex()
dtnsim.node[*].noradModule.satName = "sat"
**.updateInterval = 20s
**.numOfSats = 360
**.satPerPlane = 18
**.altitude = 540
**.planes = 20
**.phaseOffset = 11

dtnsim.node[*].dtn.routing = "antop"
dtnsim.node[*].dtn.printRoutingDebug = true

# --- Random Traffic Configuration ---
# Node 1 random traffic
dtnsim.node[1].app.enable = true
dtnsim.node[1].app.bundlesNumber = "1,1,1,1,1,1,1,1,1,1,1,1,1,1,1,1,1,1,1,1,1,1,1,1,1,1,1,1,1,1,1,1,1,1,1,1,1,1,1,1,1,1,1,1,1,1,1,1,1,1,1,1,1,1,1,1,1,1,1,1,1,1,1,1,1,1,1,1,1,1,1,1,1,1,1,1,1,1,1,1,1,1,1,1,1,1,1,1,1,1,1,1,1,1,1,1,1,1,1,1"
dtnsim.node[1].app.start = "4,3,11,17,10,13,6,16,12,15,7,16,20,11,1,3,4,11,17,4,10,12,2,1,13,2,19,14,20,19,19,16,9,3,17,20,1,16,16,11,2,9,14,18,20,2,6,20,2,18,10,4,18,15,18,14,11,19,8,6,9,17,9,2,13,2,14,7,14,4,17,7,3,9,18,18,9,17,9,9,19,10,6,10,8,5,12,2,4,3,9,4,12,10,5,8,17,8,12,7"
dtnsim.node[1].app.destinationEid = "53,350,63,184,251,197,324,183,171,67,151,141,164,113,145,334,111,201,86,260,336,132,129,209,34,98,340,127,191,59,107,160,227,33,330,200,308,298,69,335,22,323,29,39,300,29,154,155,143,51,190,168,310,25,266,121,333,59,241,130,317,333,43,8,151,56,205,109,290,266,244,179,342,35,261,323,280,325,140,154,87,108,137,263,209,345,167,276,214,225,306,20,275,291,300,141,275,289,198,98"
dtnsim.node[1].app.size = "50,100,200,200,200,200,100,100,100,100,50,500,100,500,200,200,100,500,500,50,100,50,100,50,200,500,50,200,100,50,100,500,200,50,200,200,500,200,50,500,50,200,100,500,100,200,100,500,500,100,100,50,500,50,100,100,200,500,500,100,100,100,50,50,500,100,200,50,50,200,100,100,100,50,50,500,50,200,50,200,200,200,200,500,100,200,200,500,50,100,500,200,500,500,200,200,200,200,500,500"
        # Node 2 random traffic
dtnsim.node[2].app.enable = true
dtnsim.node[2].app.bundlesNumber = "1,1,1,1,1,1,1,1,1,1,1,1,1,1,1,1,1,1,1,1,1,1,1,1,1,1,1,1,1,1,1,1,1,1,1,1,1,1,1,1,1,1,1,1,1,1,1,1,1,1,1,1,1,1,1,1,1,1,1,1,1,1,1,1,1,1,1,1,1,1,1,1,1,1,1,1,1,1,1,1,1,1,1,1,1,1,1,1,1,1,1,1,1,1,1,1,1,1,1,1"
dtnsim.node[2].app.start = "19,15,1,4,2,18,15,19,4,20,10,18,16,19,13,16,1,8,14,7,16,18,5,10,6,5,12,18,10,18,4,5,19,11,5,16,9,20,3,3,20,3,19,18,4,19,16,6,4,7,11,20,7,11,10,20,5,17,8,15,9,7,4,1,2,8,17,20,18,7,8,20,4,17,13,16,18,16,12,11,9,12,9,17,10,7,19,13,16,12,4,4,2,6,2,15,10,9,8,11"
dtnsim.node[2].app.destinationEid = "246,335,276,66,268,181,116,254,190,120,153,192,7,227,294,90,164,203,288,310,260,270,169,6,43,318,100,269,69,333,142,289,345,41,62,34,158,222,305,165,343,96,228,112,129,213,351,344,38,133,232,116,280,81,354,296,48,187,59,77,272,258,178,322,202,47,345,165,114,313,280,193,82,271,117,83,240,91,36,126,269,359,68,348,118,104,333,199,207,48,166,215,294,289,292,30,317,42,266,111"
dtnsim.node[2].app.size = "100,200,200,100,500,50,100,500,50,200,200,100,50,500,500,200,100,500,50,200,100,500,100,200,500,500,50,50,500,500,200,100,200,500,50,500,200,50,500,50,100,500,200,100,100,200,500,500,100,50,50,500,100,100,500,100,100,100,100,100,50,500,100,50,100,100,200,200,50,100,50,50,500,500,50,100,500,500,200,500,500,200,50,100,200,500,50,100,100,100,100,50,100,50,50,500,50,500,500,100"
        # Node 3 random traffic
dtnsim.node[3].app.enable = true
dtnsim.node[3].app.bundlesNumber = "1,1,1,1,1,1,1,1,1,1,1,1,1,1,1,1,1,1,1,1,1,1,1,1,1,1,1,1,1,1,1,1,1,1,1,1,1,1,1,1,1,1,1,1,1,1,1,1,1,1,1,1,1,1,1,1,1,1,1,1,1,1,1,1,1,1,1,1,1,1,1,1,1,1,1,1,1,1,1,1,1,1,1,1,1,1,1,1,1,1,1,1,1,1,1,1,1,1,1,1"
dtnsim.node[3].app.start = "9,11,9,19,11,14,13,2,8,4,14,14,15,1,14,10,3,10,14,5,9,6,11,12,1,4,4,15,6,7,6,18,17,19,1,11,9,16,2,17,8,4,2,13,17,9,1,7,3,20,20,7,4,19,19,20,20,3,20,19,20,19,2,19,4,11,5,16,8,1,19,20,9,14,7,18,5,6,1,15,3,17,4,4,2,15,13,12,18,4,14,13,16,13,6,11,20,11,16,10"
dtnsim.node[3].app.destinationEid = "299,38,167,246,174,358,15,222,258,354,315,47,296,155,258,73,317,119,79,58,79,206,54,38,53,267,350,86,307,208,343,88,346,52,270,345,61,334,28,191,273,193,292,131,278,321,76,320,81,342,229,66,44,320,213,353,338,75,110,334,319,168,39,216,207,263,250,149,56,353,160,240,100,298,246,214,77,176,164,178,54,341,97,122,198,44,60,148,265,155,330,216,277,309,116,280,290,289,42,124"
dtnsim.node[3].app.size = "100,100,500,500,100,100,50,100,50,500,50,200,50,200,500,200,100,100,500,50,500,100,200,100,100,500,200,500,200,500,200,500,50,500,500,500,50,200,200,500,200,100,200,500,500,50,200,500,500,200,200,200,100,200,500,500,50,200,100,500,50,500,500,500,500,50,50,500,50,100,500,500,50,50,100,500,50,50,200,200,50,100,200,500,50,500,100,200,50,200,50,50,200,200,100,100,50,500,100,100"
        # Node 4 random traffic
dtnsim.node[4].app.enable = true
dtnsim.node[4].app.bundlesNumber = "1,1,1,1,1,1,1,1,1,1,1,1,1,1,1,1,1,1,1,1,1,1,1,1,1,1,1,1,1,1,1,1,1,1,1,1,1,1,1,1,1,1,1,1,1,1,1,1,1,1,1,1,1,1,1,1,1,1,1,1,1,1,1,1,1,1,1,1,1,1,1,1,1,1,1,1,1,1,1,1,1,1,1,1,1,1,1,1,1,1,1,1,1,1,1,1,1,1,1,1"
dtnsim.node[4].app.start = "4,1,2,10,5,8,7,16,20,16,15,1,12,4,5,20,15,10,10,14,4,16,12,2,8,2,4,12,8,18,7,18,3,19,19,2,4,6,14,1,8,20,6,11,16,4,11,5,9,1,2,6,16,17,7,2,10,5,20,18,18,6,15,5,4,7,7,18,7,3,2,12,15,3,10,18,18,8,18,3,13,16,16,6,17,17,13,17,17,10,11,13,3,19,14,9,19,14,4,9"
dtnsim.node[4].app.destinationEid = "264,96,273,17,7,159,263,251,7,116,124,277,302,177,291,264,324,118,114,136,2,228,13,174,257,212,100,308,53,207,143,249,80,9,329,305,46,290,121,88,116,298,29,124,267,25,342,255,204,273,229,111,113,244,102,191,321,137,52,16,266,336,244,64,203,348,268,207,287,174,2,73,214,132,179,152,51,352,12,317,132,271,122,12,335,255,204,279,127,316,96,271,237,259,73,203,225,350,354,119"
dtnsim.node[4].app.size = "200,100,50,500,50,50,500,100,200,200,200,500,100,100,500,100,100,200,500,200,200,200,100,100,50,200,500,100,100,500,500,100,500,100,200,200,50,500,200,50,50,50,100,50,50,100,500,100,50,50,200,500,100,200,500,50,100,500,200,50,100,100,500,50,50,200,100,200,50,500,500,200,500,200,200,500,500,500,500,50,200,100,200,500,500,500,100,100,50,50,200,100,100,200,100,500,200,50,200,50"
        # Node 5 random traffic
dtnsim.node[5].app.enable = true
dtnsim.node[5].app.bundlesNumber = "1,1,1,1,1,1,1,1,1,1,1,1,1,1,1,1,1,1,1,1,1,1,1,1,1,1,1,1,1,1,1,1,1,1,1,1,1,1,1,1,1,1,1,1,1,1,1,1,1,1,1,1,1,1,1,1,1,1,1,1,1,1,1,1,1,1,1,1,1,1,1,1,1,1,1,1,1,1,1,1,1,1,1,1,1,1,1,1,1,1,1,1,1,1,1,1,1,1,1,1"
dtnsim.node[5].app.start = "7,20,17,3,17,1,15,5,13,7,8,4,6,4,1,13,9,12,15,14,17,15,6,13,4,17,1,8,8,7,19,11,15,13,7,19,16,19,14,20,4,15,10,1,10,20,18,20,1,1,5,9,17,18,10,11,16,11,8,6,4,13,2,4,11,19,4,5,10,10,15,4,13,11,16,9,16,5,4,17,3,3,1,19,17,15,9,6,15,9,10,7,13,4,16,4,13,14,11,12"
dtnsim.node[5].app.destinationEid = "251,292,228,71,318,291,209,156,282,355,3,338,263,224,14,300,279,159,231,271,27,354,23,238,158,341,231,171,95,62,188,125,194,125,40,307,360,353,316,173,330,51,230,234,263,46,251,132,356,86,331,43,11,54,324,104,35,61,1,233,338,321,354,198,165,213,311,307,355,43,75,23,189,354,342,334,329,59,74,280,335,257,206,175,109,42,192,81,143,189,243,291,304,74,199,317,196,19,306,130"
dtnsim.node[5].app.size = "500,200,50,500,100,100,200,100,50,500,50,100,200,200,50,200,500,100,500,200,200,200,100,100,500,500,100,100,50,50,100,200,200,500,50,200,50,100,50,100,100,500,50,200,200,50,500,200,100,200,100,500,100,50,50,50,50,100,500,200,200,500,500,500,100,200,500,200,500,500,200,500,200,50,200,500,100,50,500,50,200,500,500,100,50,100,50,200,500,200,100,100,100,500,200,200,500,50,100,100"
        # Node 6 random traffic
dtnsim.node[6].app.enable = true
dtnsim.node[6].app.bundlesNumber = "1,1,1,1,1,1,1,1,1,1,1,1,1,1,1,1,1,1,1,1,1,1,1,1,1,1,1,1,1,1,1,1,1,1,1,1,1,1,1,1,1,1,1,1,1,1,1,1,1,1,1,1,1,1,1,1,1,1,1,1,1,1,1,1,1,1,1,1,1,1,1,1,1,1,1,1,1,1,1,1,1,1,1,1,1,1,1,1,1,1,1,1,1,1,1,1,1,1,1,1"
dtnsim.node[6].app.start = "20,9,9,5,15,1,9,3,18,6,5,12,2,19,3,3,5,5,8,20,5,15,6,7,10,18,16,12,1,11,4,18,8,7,13,19,3,8,4,13,16,12,15,4,16,18,12,14,10,3,8,9,12,17,5,2,8,1,7,12,17,6,16,12,2,14,9,1,2,16,9,13,11,9,11,8,5,15,19,11,6,4,3,4,10,15,4,11,4,6,1,5,15,1,14,11,14,20,5,5"
dtnsim.node[6].app.destinationEid = "134,23,298,306,299,71,231,339,16,38,156,268,234,338,248,142,22,143,253,271,95,11,15,230,217,13,197,237,196,72,297,139,353,48,121,35,286,58,54,305,348,268,260,335,81,49,287,59,140,16,36,188,158,299,43,268,84,94,282,244,359,74,179,109,81,199,204,99,244,322,221,141,97,358,338,353,4,237,223,105,338,242,31,190,307,129,304,190,165,351,138,103,38,347,79,351,237,23,263,73"
dtnsim.node[6].app.size = "50,200,50,100,100,100,50,100,50,500,50,500,200,200,50,200,100,100,100,500,200,50,500,100,50,50,50,50,200,50,100,500,100,50,50,500,500,500,500,100,100,50,200,100,100,100,100,500,200,50,50,200,200,100,200,200,50,50,200,200,200,50,50,500,200,200,100,100,200,500,50,200,100,100,200,100,100,50,50,500,200,100,50,50,50,100,200,500,200,100,100,200,200,100,50,500,500,500,200,50"
        # Node 7 random traffic
dtnsim.node[7].app.enable = true
dtnsim.node[7].app.bundlesNumber = "1,1,1,1,1,1,1,1,1,1,1,1,1,1,1,1,1,1,1,1,1,1,1,1,1,1,1,1,1,1,1,1,1,1,1,1,1,1,1,1,1,1,1,1,1,1,1,1,1,1,1,1,1,1,1,1,1,1,1,1,1,1,1,1,1,1,1,1,1,1,1,1,1,1,1,1,1,1,1,1,1,1,1,1,1,1,1,1,1,1,1,1,1,1,1,1,1,1,1,1"
dtnsim.node[7].app.start = "10,13,13,13,3,4,20,17,10,20,17,2,8,1,14,2,9,12,6,6,2,11,16,10,15,12,4,8,18,19,3,10,5,11,5,19,1,13,7,11,6,5,18,10,11,14,1,1,2,10,9,7,15,8,1,4,20,8,15,4,16,6,5,20,10,7,8,16,10,14,2,8,18,9,6,6,8,1,10,4,20,2,11,9,9,4,2,5,1,7,19,3,7,17,4,19,10,16,8,14"
dtnsim.node[7].app.destinationEid = "218,350,328,63,293,341,221,295,354,2,59,315,347,218,197,339,353,21,250,233,357,217,55,13,59,37,134,85,107,105,125,346,119,70,32,165,45,33,137,223,288,245,263,309,130,271,85,302,48,129,144,31,240,167,51,203,354,183,307,355,24,137,191,67,178,102,312,50,348,334,262,47,25,198,357,219,345,241,124,267,126,74,166,113,44,325,177,223,286,180,191,50,264,247,259,107,47,212,78,125"
dtnsim.node[7].app.size = "50,200,100,500,500,500,50,50,100,100,50,200,100,100,50,50,200,200,200,50,500,100,500,100,100,200,500,200,500,50,200,500,200,100,200,200,100,50,500,50,200,500,100,500,200,50,200,200,100,500,500,50,100,50,200,200,50,100,50,500,500,500,100,50,100,50,50,200,100,100,500,200,100,100,200,50,100,100,500,200,50,200,50,500,50,500,200,100,50,500,50,200,50,50,200,100,500,100,100,50"
        # Node 8 random traffic
dtnsim.node[8].app.enable = true
dtnsim.node[8].app.bundlesNumber = "1,1,1,1,1,1,1,1,1,1,1,1,1,1,1,1,1,1,1,1,1,1,1,1,1,1,1,1,1,1,1,1,1,1,1,1,1,1,1,1,1,1,1,1,1,1,1,1,1,1,1,1,1,1,1,1,1,1,1,1,1,1,1,1,1,1,1,1,1,1,1,1,1,1,1,1,1,1,1,1,1,1,1,1,1,1,1,1,1,1,1,1,1,1,1,1,1,1,1,1"
dtnsim.node[8].app.start = "11,16,2,7,13,14,6,3,1,5,1,2,18,3,5,17,16,4,14,9,20,4,15,20,19,6,18,9,7,18,7,17,9,11,5,9,16,5,3,10,15,18,20,2,13,9,2,1,15,13,1,7,18,1,14,10,10,12,13,7,17,19,4,7,2,14,14,19,17,5,13,18,17,15,6,9,5,9,8,18,2,5,20,3,17,1,16,16,18,7,11,13,3,18,12,5,11,12,11,3"
dtnsim.node[8].app.destinationEid = "177,60,168,192,111,124,28,182,291,232,146,184,343,15,325,355,194,211,244,296,343,94,334,196,169,61,103,79,32,144,70,41,283,3,132,232,281,84,11,358,58,16,343,58,30,50,259,305,137,202,263,21,203,334,243,241,68,282,153,92,329,298,124,265,114,347,87,288,40,6,216,27,52,84,314,169,218,23,225,291,3,200,36,268,172,25,354,307,349,11,212,303,333,107,167,65,185,93,105,319"
dtnsim.node[8].app.size = "50,100,200,50,500,50,500,50,500,200,500,50,500,100,500,500,100,200,100,200,100,200,50,100,100,50,500,100,500,100,100,100,50,50,500,200,200,50,200,100,50,100,500,100,50,50,200,50,100,500,100,500,50,100,100,50,200,500,200,100,500,100,100,100,100,500,50,500,200,200,500,200,200,50,200,100,200,200,200,100,50,500,50,200,200,50,100,100,200,50,500,100,200,200,100,50,50,500,100,50"
        # Node 9 random traffic
dtnsim.node[9].app.enable = true
dtnsim.node[9].app.bundlesNumber = "1,1,1,1,1,1,1,1,1,1,1,1,1,1,1,1,1,1,1,1,1,1,1,1,1,1,1,1,1,1,1,1,1,1,1,1,1,1,1,1,1,1,1,1,1,1,1,1,1,1,1,1,1,1,1,1,1,1,1,1,1,1,1,1,1,1,1,1,1,1,1,1,1,1,1,1,1,1,1,1,1,1,1,1,1,1,1,1,1,1,1,1,1,1,1,1,1,1,1,1"
dtnsim.node[9].app.start = "19,9,3,13,7,14,8,9,16,8,10,13,15,7,9,18,10,16,10,8,10,16,4,20,2,3,5,6,4,14,18,2,19,17,19,8,10,17,13,1,2,13,15,7,10,7,2,18,20,16,4,7,17,17,15,20,12,16,6,16,5,2,12,18,14,9,19,4,10,7,6,2,14,13,16,7,16,4,6,3,7,17,19,5,18,17,20,7,9,19,7,16,15,5,16,4,16,4,19,12"
dtnsim.node[9].app.destinationEid = "297,69,288,344,298,73,30,267,228,360,357,243,241,112,345,19,292,337,246,314,50,172,231,348,145,104,310,38,37,316,338,311,140,133,20,308,296,307,43,29,108,208,121,38,153,242,101,249,304,124,170,88,130,7,98,188,68,284,7,154,96,211,311,14,82,315,256,104,302,133,202,285,134,259,230,103,170,217,70,313,70,150,75,332,179,359,358,322,250,303,353,266,219,292,305,352,162,39,290,256"
dtnsim.node[9].app.size = "500,100,100,500,50,50,200,50,200,100,50,500,50,100,100,200,500,500,50,500,500,200,500,200,100,100,500,500,500,50,100,100,500,50,200,200,50,100,200,500,500,500,50,200,200,100,200,500,50,200,200,100,100,500,50,50,100,200,500,200,500,500,500,50,50,500,500,500,50,500,50,100,500,500,200,100,100,100,50,500,500,50,200,500,50,100,50,500,100,500,200,50,50,50,200,100,50,200,200,200"
        # Node 10 random traffic
dtnsim.node[10].app.enable = true
dtnsim.node[10].app.bundlesNumber = "1,1,1,1,1,1,1,1,1,1,1,1,1,1,1,1,1,1,1,1,1,1,1,1,1,1,1,1,1,1,1,1,1,1,1,1,1,1,1,1,1,1,1,1,1,1,1,1,1,1,1,1,1,1,1,1,1,1,1,1,1,1,1,1,1,1,1,1,1,1,1,1,1,1,1,1,1,1,1,1,1,1,1,1,1,1,1,1,1,1,1,1,1,1,1,1,1,1,1,1"
dtnsim.node[10].app.start = "16,18,7,10,16,3,20,17,5,9,4,14,12,15,19,14,7,18,13,18,7,7,1,2,18,20,13,11,16,18,14,10,16,15,16,14,13,1,4,4,2,12,2,17,4,16,5,20,13,14,7,2,14,19,4,6,19,10,7,7,18,6,6,12,4,13,12,5,10,3,3,12,15,8,15,7,8,17,9,12,3,19,7,13,12,6,10,13,6,12,9,9,17,11,5,14,6,11,17,5"
dtnsim.node[10].app.destinationEid = "18,25,212,86,268,328,202,30,261,89,281,21,303,223,134,155,210,293,213,181,185,97,150,180,151,324,6,17,111,337,204,311,26,175,188,118,74,32,282,206,216,200,49,270,354,298,333,264,301,85,238,191,134,335,250,207,120,280,286,267,152,162,183,29,78,310,62,236,271,233,95,207,11,218,360,236,61,89,146,53,132,46,293,172,82,337,143,184,148,62,73,184,235,103,208,358,56,99,21,267"
dtnsim.node[10].app.size = "200,200,500,50,50,100,100,50,200,100,100,50,50,500,500,50,50,500,500,200,100,100,50,50,50,50,50,500,100,200,50,500,500,100,500,200,200,50,50,500,200,200,500,500,500,50,500,50,100,500,50,100,100,100,500,50,100,100,200,100,500,200,500,50,100,200,100,100,100,500,200,200,200,200,500,50,100,200,50,50,200,50,50,100,100,50,50,100,50,200,100,100,100,500,500,200,500,50,100,200"
        # Node 11 random traffic
dtnsim.node[11].app.enable = true
dtnsim.node[11].app.bundlesNumber = "1,1,1,1,1,1,1,1,1,1,1,1,1,1,1,1,1,1,1,1,1,1,1,1,1,1,1,1,1,1,1,1,1,1,1,1,1,1,1,1,1,1,1,1,1,1,1,1,1,1,1,1,1,1,1,1,1,1,1,1,1,1,1,1,1,1,1,1,1,1,1,1,1,1,1,1,1,1,1,1,1,1,1,1,1,1,1,1,1,1,1,1,1,1,1,1,1,1,1,1"
dtnsim.node[11].app.start = "15,20,6,17,4,20,12,18,8,3,10,11,7,4,16,17,1,18,17,20,5,5,18,6,5,18,17,9,13,18,19,13,18,20,19,8,18,1,1,20,6,5,8,4,5,14,6,11,8,9,15,16,15,15,17,16,7,4,12,4,20,4,1,14,14,10,7,18,14,6,7,13,16,8,6,13,6,13,3,19,13,5,12,19,18,6,18,10,14,13,14,10,14,17,6,3,19,1,13,18"
dtnsim.node[11].app.destinationEid = "294,218,282,19,189,161,186,125,131,164,192,51,310,235,295,34,178,147,65,268,298,51,96,329,161,44,294,207,172,210,85,283,77,236,335,86,60,24,180,147,306,121,275,177,335,67,90,285,206,141,192,142,47,179,280,251,6,353,297,343,80,217,4,312,355,104,296,87,255,155,165,144,217,270,250,78,317,90,322,161,74,337,39,223,102,200,99,100,109,346,77,192,330,345,153,191,283,146,310,50"
dtnsim.node[11].app.size = "500,100,500,100,200,200,200,50,500,50,200,500,100,200,200,50,50,200,500,100,100,100,200,500,100,500,500,500,100,200,50,100,500,100,100,200,50,50,500,200,100,500,500,50,200,200,50,100,50,500,500,100,100,500,50,50,200,200,200,200,200,200,100,200,50,200,500,100,500,200,500,100,200,500,50,100,500,500,50,200,50,200,50,500,200,100,100,500,200,200,500,200,200,200,200,50,50,200,50,200"
        # Node 12 random traffic
dtnsim.node[12].app.enable = true
dtnsim.node[12].app.bundlesNumber = "1,1,1,1,1,1,1,1,1,1,1,1,1,1,1,1,1,1,1,1,1,1,1,1,1,1,1,1,1,1,1,1,1,1,1,1,1,1,1,1,1,1,1,1,1,1,1,1,1,1,1,1,1,1,1,1,1,1,1,1,1,1,1,1,1,1,1,1,1,1,1,1,1,1,1,1,1,1,1,1,1,1,1,1,1,1,1,1,1,1,1,1,1,1,1,1,1,1,1,1"
dtnsim.node[12].app.start = "13,20,9,6,4,9,14,4,3,10,13,9,13,1,16,7,5,7,17,10,10,4,14,2,20,12,12,16,4,5,5,4,6,15,11,13,17,16,10,7,16,11,5,19,11,12,5,4,7,12,14,10,18,8,18,19,7,14,16,16,5,14,6,3,15,15,19,5,12,16,4,3,8,15,6,14,20,5,2,6,17,19,11,15,15,13,15,20,3,2,4,14,5,4,15,16,3,11,1,15"
dtnsim.node[12].app.destinationEid = "111,39,146,352,359,51,222,231,262,66,252,296,2,59,170,351,243,258,28,44,81,242,155,233,178,48,194,107,112,291,178,215,242,305,78,178,244,244,246,39,53,178,218,107,298,294,219,268,38,170,354,294,88,13,193,67,193,63,24,32,337,131,222,245,113,190,320,173,111,326,30,54,24,182,18,254,60,347,177,289,59,204,151,318,18,97,22,13,316,154,301,164,102,138,63,154,127,191,99,207"
dtnsim.node[12].app.size = "100,500,100,50,100,500,100,200,500,500,50,500,500,200,100,500,200,200,100,500,200,100,500,50,100,50,50,500,200,50,100,50,100,50,200,50,200,50,100,100,500,50,200,200,200,500,200,500,50,50,200,100,200,100,500,200,100,500,50,100,100,100,200,50,500,500,100,100,100,50,500,50,200,50,200,50,100,50,200,500,500,200,500,100,50,50,100,200,200,50,50,50,50,200,500,100,500,500,500,500"
        # Node 13 random traffic
dtnsim.node[13].app.enable = true
dtnsim.node[13].app.bundlesNumber = "1,1,1,1,1,1,1,1,1,1,1,1,1,1,1,1,1,1,1,1,1,1,1,1,1,1,1,1,1,1,1,1,1,1,1,1,1,1,1,1,1,1,1,1,1,1,1,1,1,1,1,1,1,1,1,1,1,1,1,1,1,1,1,1,1,1,1,1,1,1,1,1,1,1,1,1,1,1,1,1,1,1,1,1,1,1,1,1,1,1,1,1,1,1,1,1,1,1,1,1"
dtnsim.node[13].app.start = "20,18,5,10,8,4,7,14,20,4,10,18,20,3,16,13,12,9,10,11,19,8,15,11,15,5,13,19,6,11,18,4,17,4,17,19,6,6,8,6,1,10,15,5,9,16,17,3,4,4,12,1,9,7,7,8,4,9,15,4,20,19,12,3,4,15,14,17,9,14,20,4,15,10,9,20,19,3,9,11,9,4,2,1,10,11,12,7,1,14,19,12,14,10,1,1,9,11,5,2"
dtnsim.node[13].app.destinationEid = "199,204,287,18,183,344,88,98,30,172,97,173,41,277,6,5,131,346,241,227,55,270,236,62,319,328,33,297,70,32,7,304,123,150,206,308,43,5,260,193,243,150,89,136,304,276,88,205,69,334,326,64,143,263,170,275,188,25,262,310,130,338,149,250,157,24,198,314,292,73,133,197,289,74,344,7,220,147,322,294,164,294,136,181,111,147,42,34,18,349,19,335,335,236,297,275,335,168,94,90"
dtnsim.node[13].app.size = "100,200,200,50,200,500,100,100,50,500,500,100,100,100,100,500,500,200,100,200,50,100,100,500,50,500,500,50,200,50,100,100,50,500,100,50,200,500,50,50,100,500,100,200,100,200,50,500,50,200,200,500,500,50,200,100,200,100,50,50,100,200,50,500,500,50,100,200,50,500,50,50,200,500,200,100,200,100,100,50,200,50,50,200,500,100,100,500,100,100,500,50,100,500,100,500,50,50,500,50"
        # Node 14 random traffic
dtnsim.node[14].app.enable = true
dtnsim.node[14].app.bundlesNumber = "1,1,1,1,1,1,1,1,1,1,1,1,1,1,1,1,1,1,1,1,1,1,1,1,1,1,1,1,1,1,1,1,1,1,1,1,1,1,1,1,1,1,1,1,1,1,1,1,1,1,1,1,1,1,1,1,1,1,1,1,1,1,1,1,1,1,1,1,1,1,1,1,1,1,1,1,1,1,1,1,1,1,1,1,1,1,1,1,1,1,1,1,1,1,1,1,1,1,1,1"
dtnsim.node[14].app.start = "4,10,8,10,6,10,5,15,6,8,4,11,4,6,17,19,16,10,20,10,4,16,8,18,8,1,7,9,11,12,6,4,18,9,20,19,2,17,7,16,13,7,16,15,1,6,13,3,9,5,2,8,18,20,14,1,11,15,16,20,11,17,4,4,6,13,20,18,16,3,2,4,9,6,10,20,20,19,8,2,20,4,1,17,15,10,3,6,2,9,11,7,14,12,5,2,16,8,1,2"
dtnsim.node[14].app.destinationEid = "196,189,189,201,125,234,18,182,238,358,54,340,350,193,328,200,352,9,37,100,155,45,202,83,193,168,265,349,313,238,144,169,44,267,161,308,288,339,335,18,242,265,208,327,24,66,359,57,28,105,290,182,119,127,119,280,134,140,52,130,328,345,36,348,205,307,190,245,188,69,320,124,153,275,160,238,15,166,268,172,276,337,58,319,79,85,20,168,156,156,159,328,325,221,72,300,131,289,27,331"
dtnsim.node[14].app.size = "100,500,200,200,100,200,100,50,100,200,50,100,200,100,500,100,500,50,500,200,200,200,200,500,500,50,200,500,200,100,50,500,50,500,500,100,500,50,200,50,500,50,200,500,100,500,100,200,500,100,50,200,50,50,500,50,200,200,100,500,100,50,200,200,200,200,100,100,50,50,100,100,50,100,50,500,500,200,200,200,500,50,100,100,500,50,500,100,500,50,200,50,50,500,500,50,500,500,100,50"
        # Node 15 random traffic
dtnsim.node[15].app.enable = true
dtnsim.node[15].app.bundlesNumber = "1,1,1,1,1,1,1,1,1,1,1,1,1,1,1,1,1,1,1,1,1,1,1,1,1,1,1,1,1,1,1,1,1,1,1,1,1,1,1,1,1,1,1,1,1,1,1,1,1,1,1,1,1,1,1,1,1,1,1,1,1,1,1,1,1,1,1,1,1,1,1,1,1,1,1,1,1,1,1,1,1,1,1,1,1,1,1,1,1,1,1,1,1,1,1,1,1,1,1,1"
dtnsim.node[15].app.start = "1,10,2,19,18,6,2,2,3,14,3,2,4,18,11,1,17,3,4,9,5,11,20,11,18,18,2,16,18,1,9,2,6,19,15,1,13,6,2,11,8,14,4,15,16,12,7,14,18,2,20,4,18,6,11,1,7,15,6,19,11,9,12,12,15,8,14,15,5,16,7,18,20,5,11,4,5,3,9,2,4,13,16,6,11,11,7,1,7,10,10,11,12,3,17,14,17,3,6,1"
dtnsim.node[15].app.destinationEid = "120,99,137,136,84,38,354,202,225,298,262,73,71,320,199,223,49,4,330,206,12,131,109,66,70,288,216,147,351,215,220,92,286,89,2,4,359,133,187,253,63,226,314,220,11,317,77,124,52,106,106,108,269,295,243,327,5,100,46,77,229,107,45,136,320,205,295,297,117,133,8,35,190,123,348,227,126,99,219,40,256,353,280,281,59,76,191,300,126,313,144,245,74,62,28,155,191,134,112,167"
dtnsim.node[15].app.size = "200,100,200,200,200,500,100,100,200,50,500,100,500,50,50,50,50,500,500,500,50,50,100,200,200,100,50,50,500,200,500,100,500,200,100,200,200,100,500,50,500,200,100,50,100,100,200,100,200,200,100,200,200,500,500,500,50,50,100,50,50,200,500,50,100,500,50,50,50,100,100,500,100,500,500,100,50,500,100,50,100,500,100,50,500,500,500,50,100,500,500,500,200,500,200,200,500,200,200,500"
        # Node 16 random traffic
dtnsim.node[16].app.enable = true
dtnsim.node[16].app.bundlesNumber = "1,1,1,1,1,1,1,1,1,1,1,1,1,1,1,1,1,1,1,1,1,1,1,1,1,1,1,1,1,1,1,1,1,1,1,1,1,1,1,1,1,1,1,1,1,1,1,1,1,1,1,1,1,1,1,1,1,1,1,1,1,1,1,1,1,1,1,1,1,1,1,1,1,1,1,1,1,1,1,1,1,1,1,1,1,1,1,1,1,1,1,1,1,1,1,1,1,1,1,1"
dtnsim.node[16].app.start = "2,20,6,18,16,2,6,18,16,4,3,15,18,17,12,15,18,2,7,9,3,14,10,9,8,5,14,9,18,7,11,14,6,6,15,10,12,19,3,19,10,12,10,1,9,3,8,2,1,16,3,7,5,16,16,5,1,16,16,17,14,1,9,1,3,1,10,7,18,18,8,18,9,15,3,11,4,16,1,10,12,14,5,11,6,6,15,11,10,5,11,16,4,1,20,3,4,2,16,15"
dtnsim.node[16].app.destinationEid = "149,343,146,294,272,241,110,45,330,322,71,227,132,200,286,348,277,216,59,323,193,233,277,347,15,174,136,232,185,167,156,162,360,348,286,300,323,195,145,154,103,59,36,105,75,83,142,315,178,55,174,11,157,115,231,192,287,107,63,22,294,205,62,266,235,88,258,180,106,24,81,309,308,264,200,90,318,282,64,36,292,226,148,328,130,302,9,158,80,126,100,197,225,31,262,308,335,136,158,170"
dtnsim.node[16].app.size = "100,100,50,200,100,200,200,50,50,200,500,50,200,200,100,500,200,200,100,100,50,200,100,500,100,100,500,200,200,200,50,50,200,500,50,50,500,500,50,50,500,500,50,50,200,500,50,50,500,200,100,50,100,200,100,50,200,500,200,200,50,500,100,100,500,500,200,200,200,50,200,100,100,200,500,200,500,500,50,100,200,200,50,200,200,200,200,200,50,50,50,500,100,50,100,200,500,200,500,50"
        # Node 17 random traffic
dtnsim.node[17].app.enable = true
dtnsim.node[17].app.bundlesNumber = "1,1,1,1,1,1,1,1,1,1,1,1,1,1,1,1,1,1,1,1,1,1,1,1,1,1,1,1,1,1,1,1,1,1,1,1,1,1,1,1,1,1,1,1,1,1,1,1,1,1,1,1,1,1,1,1,1,1,1,1,1,1,1,1,1,1,1,1,1,1,1,1,1,1,1,1,1,1,1,1,1,1,1,1,1,1,1,1,1,1,1,1,1,1,1,1,1,1,1,1"
dtnsim.node[17].app.start = "18,9,9,14,12,16,19,15,16,19,3,9,5,18,1,7,6,2,16,10,15,9,5,17,3,3,8,19,8,14,5,6,2,10,6,2,18,3,12,9,15,12,20,12,18,5,3,1,7,1,20,4,11,9,20,14,3,19,2,15,18,4,13,11,4,16,6,11,13,2,3,17,18,5,2,13,5,1,8,16,1,14,16,7,4,7,1,11,5,2,9,14,17,15,10,17,15,3,9,6"
dtnsim.node[17].app.destinationEid = "165,93,181,271,125,135,191,41,95,220,67,330,347,350,263,301,102,256,288,160,355,189,134,110,163,305,223,253,114,71,341,217,254,219,266,217,217,318,193,46,165,140,301,86,51,346,18,44,315,116,287,293,187,353,263,62,322,103,26,313,339,169,337,165,64,282,41,295,118,271,290,52,329,70,341,19,131,217,58,141,237,299,58,284,246,235,177,313,244,350,56,333,63,330,86,345,59,314,19,227"
dtnsim.node[17].app.size = "200,50,200,100,500,50,200,500,50,500,100,50,200,200,200,200,500,200,50,200,100,50,50,200,100,500,200,100,50,500,100,500,100,50,100,100,50,200,100,200,200,200,500,500,100,200,200,100,100,100,50,50,500,500,100,200,100,200,500,50,100,100,100,500,100,500,100,200,50,50,500,100,100,200,50,100,50,100,50,100,100,200,500,500,100,100,200,500,100,100,200,200,50,200,500,50,500,500,100,100"
        # Node 18 random traffic
dtnsim.node[18].app.enable = true
dtnsim.node[18].app.bundlesNumber = "1,1,1,1,1,1,1,1,1,1,1,1,1,1,1,1,1,1,1,1,1,1,1,1,1,1,1,1,1,1,1,1,1,1,1,1,1,1,1,1,1,1,1,1,1,1,1,1,1,1,1,1,1,1,1,1,1,1,1,1,1,1,1,1,1,1,1,1,1,1,1,1,1,1,1,1,1,1,1,1,1,1,1,1,1,1,1,1,1,1,1,1,1,1,1,1,1,1,1,1"
dtnsim.node[18].app.start = "1,7,3,14,1,14,17,16,18,1,17,18,9,3,12,11,14,20,14,7,15,2,6,14,4,17,16,5,15,17,1,9,12,8,12,17,20,9,8,12,11,2,16,15,14,16,16,19,15,15,19,20,18,18,8,10,11,1,3,17,19,10,14,12,12,17,9,11,20,1,3,14,20,6,17,9,15,6,12,1,20,3,2,13,14,11,3,9,8,13,11,4,13,3,3,10,13,9,4,9"
dtnsim.node[18].app.destinationEid = "179,354,169,350,44,231,129,279,31,109,259,43,236,128,110,144,325,205,57,69,73,72,302,127,2,98,168,305,70,3,301,262,137,4,308,125,336,84,269,318,5,358,259,62,276,30,171,42,48,56,181,156,229,264,280,83,156,171,118,177,45,205,306,316,182,309,69,249,59,123,241,332,58,100,302,246,159,107,162,160,334,42,179,314,178,304,311,328,338,46,349,27,89,212,52,274,89,45,35,146"
dtnsim.node[18].app.size = "50,100,50,200,100,200,50,200,100,500,50,200,200,200,200,200,50,50,50,50,200,50,500,50,50,100,50,200,100,500,50,200,50,500,200,50,100,200,100,200,200,50,50,50,100,100,500,500,200,200,500,500,200,100,50,100,500,50,500,500,100,200,200,200,50,50,100,100,100,100,200,50,200,500,500,50,100,50,50,200,200,200,50,200,500,100,200,500,200,500,50,200,50,100,500,200,50,100,50,200"
        # Node 19 random traffic
dtnsim.node[19].app.enable = true
dtnsim.node[19].app.bundlesNumber = "1,1,1,1,1,1,1,1,1,1,1,1,1,1,1,1,1,1,1,1,1,1,1,1,1,1,1,1,1,1,1,1,1,1,1,1,1,1,1,1,1,1,1,1,1,1,1,1,1,1,1,1,1,1,1,1,1,1,1,1,1,1,1,1,1,1,1,1,1,1,1,1,1,1,1,1,1,1,1,1,1,1,1,1,1,1,1,1,1,1,1,1,1,1,1,1,1,1,1,1"
dtnsim.node[19].app.start = "3,12,3,6,17,3,19,17,3,20,8,3,9,13,17,5,9,18,14,9,4,15,2,2,17,10,16,4,20,16,10,6,8,1,6,16,15,3,2,1,5,5,1,5,10,1,11,13,10,16,1,16,17,18,12,2,1,15,1,11,5,8,6,1,6,16,16,11,7,14,2,10,11,14,6,12,20,12,20,3,5,11,1,11,12,19,19,4,1,19,6,11,13,13,7,7,16,8,5,18"
dtnsim.node[19].app.destinationEid = "76,195,86,192,343,178,174,335,181,270,42,194,7,129,12,254,359,271,8,300,244,43,284,109,307,272,50,326,348,144,170,8,244,158,232,352,184,13,159,94,191,50,58,140,324,141,116,150,269,234,210,180,263,91,33,70,220,205,116,287,329,205,164,158,10,319,270,320,27,169,320,160,210,340,63,106,162,274,237,64,221,296,139,256,315,163,139,218,147,20,295,149,247,345,263,57,43,147,360,255"
dtnsim.node[19].app.size = "500,50,200,200,200,50,100,200,50,50,500,100,500,500,200,100,50,200,50,500,500,200,100,200,200,500,50,50,500,50,100,200,100,100,500,500,500,50,50,200,500,100,100,100,500,500,500,200,200,100,100,200,50,200,100,500,50,200,50,50,100,500,100,500,50,500,100,200,500,500,200,100,100,50,200,200,200,50,50,200,500,50,200,100,100,200,500,200,500,200,50,200,50,100,200,500,200,100,200,100"
        # Node 20 random traffic
dtnsim.node[20].app.enable = true
dtnsim.node[20].app.bundlesNumber = "1,1,1,1,1,1,1,1,1,1,1,1,1,1,1,1,1,1,1,1,1,1,1,1,1,1,1,1,1,1,1,1,1,1,1,1,1,1,1,1,1,1,1,1,1,1,1,1,1,1,1,1,1,1,1,1,1,1,1,1,1,1,1,1,1,1,1,1,1,1,1,1,1,1,1,1,1,1,1,1,1,1,1,1,1,1,1,1,1,1,1,1,1,1,1,1,1,1,1,1"
dtnsim.node[20].app.start = "11,13,4,5,11,3,6,7,1,5,4,14,10,2,7,9,9,18,10,7,12,17,11,16,12,7,16,4,18,2,18,20,20,11,8,10,7,12,20,4,14,6,11,17,18,16,7,5,1,2,10,17,13,2,14,7,19,15,13,7,16,16,8,17,11,17,10,5,1,14,15,4,12,5,3,14,17,19,7,8,6,19,9,17,4,14,1,19,12,8,5,11,3,13,15,14,15,18,5,7"
dtnsim.node[20].app.destinationEid = "102,286,261,27,179,178,335,73,112,283,86,262,273,154,173,160,140,265,325,185,26,218,331,69,201,185,138,177,258,49,136,49,256,263,98,236,252,309,340,225,260,104,344,287,226,227,195,295,90,287,302,137,42,199,84,141,267,323,9,181,234,328,40,252,227,13,302,67,340,350,349,184,181,111,336,191,129,347,226,205,172,17,183,334,236,200,93,285,96,126,133,344,105,204,280,254,215,94,87,84"
dtnsim.node[20].app.size = "50,50,200,200,500,50,100,50,500,50,500,200,200,500,50,50,200,500,500,200,200,200,200,200,200,100,100,50,100,50,200,200,50,200,500,200,200,100,50,200,50,100,200,200,500,50,100,500,50,200,50,100,100,100,50,200,500,500,100,200,200,500,100,50,100,500,500,50,200,500,500,200,500,50,100,500,200,50,100,500,500,200,500,100,200,500,100,200,50,50,500,500,100,200,500,200,50,200,100,500"
        # Node 21 random traffic
dtnsim.node[21].app.enable = true
dtnsim.node[21].app.bundlesNumber = "1,1,1,1,1,1,1,1,1,1,1,1,1,1,1,1,1,1,1,1,1,1,1,1,1,1,1,1,1,1,1,1,1,1,1,1,1,1,1,1,1,1,1,1,1,1,1,1,1,1,1,1,1,1,1,1,1,1,1,1,1,1,1,1,1,1,1,1,1,1,1,1,1,1,1,1,1,1,1,1,1,1,1,1,1,1,1,1,1,1,1,1,1,1,1,1,1,1,1,1"
dtnsim.node[21].app.start = "2,8,7,5,1,3,16,16,6,9,9,18,1,4,10,9,1,5,16,1,4,7,5,17,12,18,15,4,12,19,7,6,9,17,4,6,19,3,17,4,3,14,2,12,10,20,1,5,8,15,10,9,17,18,19,17,13,10,2,8,15,9,15,6,6,8,20,16,9,20,11,14,17,18,20,20,15,14,14,19,16,15,3,15,3,10,1,20,3,12,20,9,6,8,11,19,5,11,13,11"
dtnsim.node[21].app.destinationEid = "190,205,283,77,275,292,294,15,10,18,273,249,291,218,158,224,47,122,55,287,89,168,206,287,303,155,37,351,306,221,103,295,193,35,71,173,16,50,97,295,294,275,279,270,305,200,82,358,79,349,97,230,292,188,342,14,72,13,234,45,266,36,194,225,97,94,258,300,320,244,337,109,198,251,243,169,152,193,94,246,332,286,173,26,7,174,59,141,239,350,310,173,86,32,17,169,82,183,254,236"