[General]
network = src.dtnsim										
repeat = 1
allow-object-stealing-on-deletion = true

# Simulation end time
sim-time-limit = 84600s

# Nodes quantity (identifiers (EiDs) matches their index, EiD=0 is ignored)			
dtnsim.nodesNumber = 180
dtnsim.node[*].icon = "satellite"

# Nodes's failure rates
dtnsim.node[*].fault.enable = false
dtnsim.node[*].fault.meanTTF = 0s
dtnsim.node[*].fault.meanTTR = 0s

# Mobility
dtnsim.node[*].hasMobility = true
dtnsim.node[*].norad.satIndex = parentIndex()
dtnsim.node[*].norad.satName = "sat"
**.updateInterval = 20s
**.numOfSats = 180
**.satPerPlane = 15
**.altitude = 540
**.planes = 12
**.phaseOffset = 7

dtnsim.node[*].dtn.routing = "antop"
dtnsim.node[*].dtn.printRoutingDebug = true

# --- Random Traffic Configuration ---
# Node 1 random traffic
dtnsim.node[1].app.enable = true
dtnsim.node[1].app.bundlesNumber = "20,46,16,28,15,10,39,49,20,5,12,41,11,4,48,24,44,25,13,39,35,46,50,45,17,48,19,26,27,16,40,19,43,47,4,26,11,16,10,33,38,19,35,16,43,15,40,32,26,5,38,5,21,12,34,47,16,44,9,40,4,14,6,45,36,28,50,32,24,43,44,19,12,35,42,46,17,19,13,34,45,15,49,18,40,33,1,7,2,30,34,25,13,14,35,39,3,11,8,7"
dtnsim.node[1].app.start = "46,88,32,24,7,65,89,79,33,89,83,94,80,69,75,89,78,84,63,35,29,76,1,19,31,21,2,92,49,79,34,19,48,82,67,98,4,70,79,26,70,27,29,32,29,92,17,3,51,7,50,59,12,88,2,31,60,1,22,25,78,21,44,13,3,92,4,70,85,98,86,64,27,69,29,93,86,1,65,5,49,45,85,47,24,98,35,39,34,50,97,93,100,47,6,51,13,47,42,76"
dtnsim.node[1].app.destinationEid = "118,170,20,77,5,35,104,133,154,128,36,176,73,9,24,110,148,35,152,92,130,94,7,59,121,55,85,11,88,96,13,169,73,133,79,102,132,69,47,158,47,29,123,10,55,27,15,128,104,114,170,13,114,40,54,155,64,117,74,51,180,83,40,76,11,173,144,110,92,15,83,138,119,36,63,17,66,88,98,68,169,72,56,107,38,133,45,46,90,55,162,51,84,142,178,51,28,169,139,178"
dtnsim.node[1].app.size = "50,100,50,50,50,50,200,500,200,50,100,200,200,500,200,200,200,50,100,200,100,500,50,200,50,500,50,200,100,100,50,50,100,100,100,100,500,50,500,500,500,200,100,200,500,100,500,200,100,500,500,500,500,200,100,100,50,50,200,200,500,50,200,500,500,500,500,500,50,200,500,500,200,100,200,500,50,50,500,200,50,50,200,200,200,50,500,500,100,50,500,500,50,500,50,500,100,500,500,200"
# Node 2 random traffic
dtnsim.node[2].app.enable = true
dtnsim.node[2].app.bundlesNumber = "25,28,28,25,23,30,42,24,31,1,43,9,1,36,24,36,48,21,39,39,18,10,50,27,10,10,37,16,36,22,31,9,15,1,18,39,9,14,32,49,16,16,26,5,50,48,1,9,15,43,30,42,11,6,44,15,50,45,42,14,20,4,47,21,45,17,27,39,35,46,27,45,24,45,6,2,33,16,19,47,26,25,3,44,36,37,8,7,21,4,16,6,1,43,37,36,27,48,48,4"
dtnsim.node[2].app.start = "97,44,53,46,15,85,29,38,21,4,46,64,63,3,34,8,82,64,5,73,80,63,78,93,38,1,7,42,27,39,6,47,20,20,46,28,14,51,88,84,98,25,89,81,83,48,73,61,52,75,14,30,59,67,34,45,51,23,6,69,88,6,51,71,51,1,98,30,69,66,5,64,90,43,27,60,35,50,25,3,92,13,93,59,24,48,64,62,19,80,17,35,38,48,40,13,99,71,99,36"
dtnsim.node[2].app.destinationEid = "4,21,126,93,142,55,131,21,152,60,8,3,166,43,80,152,75,174,101,64,134,21,49,41,147,71,34,113,58,126,53,35,129,167,19,91,13,127,19,27,101,15,16,46,115,121,156,85,118,95,166,122,30,64,72,180,29,22,156,121,174,17,87,8,88,178,153,29,159,53,86,102,62,86,116,142,108,97,102,100,163,64,52,5,22,120,42,107,132,88,136,57,174,69,134,157,72,54,85,48"
dtnsim.node[2].app.size = "50,200,500,500,200,100,500,100,500,500,100,200,200,100,100,500,500,500,100,200,500,200,100,100,50,500,500,50,200,200,100,50,200,50,100,200,200,200,100,100,200,500,100,50,50,50,100,50,200,50,200,500,50,50,50,50,200,200,500,100,50,50,500,500,100,50,100,500,200,100,500,100,500,500,50,50,500,50,500,200,50,500,100,500,100,200,50,200,100,100,500,50,200,100,500,50,100,200,500,100"
# Node 3 random traffic
dtnsim.node[3].app.enable = true
dtnsim.node[3].app.bundlesNumber = "8,17,15,4,31,47,7,11,17,45,2,21,36,13,34,41,10,20,4,8,4,40,8,19,14,47,28,46,9,39,27,1,36,5,3,11,4,12,4,29,8,23,18,23,2,19,20,30,26,43,28,9,26,19,15,29,7,7,44,48,5,48,3,27,8,50,17,43,11,48,28,22,9,10,43,26,34,47,48,18,50,42,36,16,22,2,45,45,35,9,14,13,48,31,6,46,2,42,49,33"
dtnsim.node[3].app.start = "46,85,20,26,93,39,1,62,22,61,72,68,55,59,66,84,93,9,57,19,24,64,36,95,68,29,99,92,78,33,82,67,28,96,28,85,55,51,72,100,39,100,77,4,79,56,29,91,76,97,55,7,42,77,82,75,53,93,20,38,89,70,97,44,18,59,82,47,29,38,46,64,65,85,75,71,4,39,73,9,16,68,92,84,73,98,98,29,27,52,46,80,9,43,21,92,37,13,25,5"
dtnsim.node[3].app.destinationEid = "147,56,157,17,56,16,125,132,44,160,148,103,72,127,122,164,90,16,108,107,162,168,44,50,40,113,46,9,21,134,116,86,145,5,4,27,98,103,72,33,28,143,65,173,27,7,119,97,71,63,179,1,131,160,4,123,103,100,27,70,140,35,109,11,55,158,151,153,37,7,58,4,153,142,71,167,82,86,67,84,77,160,76,127,42,103,9,79,83,11,158,8,154,146,27,23,107,72,138,21"
dtnsim.node[3].app.size = "500,500,200,100,200,500,200,100,50,100,100,500,200,200,50,500,50,500,500,500,200,200,100,200,50,200,50,200,200,100,100,500,500,50,50,500,100,50,200,100,100,50,200,500,200,100,500,200,100,500,100,50,200,50,500,100,500,500,50,200,50,500,100,200,200,50,500,500,50,200,100,50,100,200,100,500,500,50,50,500,500,500,500,50,50,500,200,200,100,100,100,100,100,200,200,200,100,50,50,50"
# Node 4 random traffic
dtnsim.node[4].app.enable = true
dtnsim.node[4].app.bundlesNumber = "16,6,40,17,38,47,28,10,44,39,19,1,30,31,16,43,38,46,14,27,3,36,45,16,30,15,38,27,1,19,5,25,12,46,38,6,34,4,41,41,19,31,29,41,30,37,6,45,43,47,9,32,4,23,37,23,23,37,3,37,46,21,23,34,46,26,25,15,1,43,30,29,32,2,40,31,31,21,31,19,33,20,45,49,41,10,26,2,3,1,35,2,39,2,15,20,35,34,25,19"
dtnsim.node[4].app.start = "53,52,58,41,19,9,44,29,54,12,76,71,49,30,80,44,18,22,5,90,13,94,6,86,3,28,81,57,19,20,66,20,86,1,31,89,13,95,11,89,37,59,45,78,76,68,44,12,75,13,13,96,89,76,11,96,20,67,23,48,57,62,17,35,91,33,59,96,21,57,88,17,8,20,29,65,70,77,54,48,43,13,89,59,30,24,4,60,92,44,5,62,89,16,98,15,27,76,31,16"
dtnsim.node[4].app.destinationEid = "92,61,75,146,138,80,172,145,29,141,102,19,32,48,25,39,3,71,55,26,53,53,125,123,147,128,52,148,36,94,107,157,173,81,96,14,160,162,9,180,150,138,129,19,139,12,123,110,3,51,119,144,61,72,82,81,132,135,70,81,97,67,109,11,151,72,11,100,11,17,133,109,169,98,105,2,10,129,46,21,100,136,35,85,140,178,132,106,166,1,151,155,155,16,164,57,87,14,124,24"
dtnsim.node[4].app.size = "200,50,100,100,50,200,500,100,500,200,500,200,200,100,50,100,500,50,200,500,200,200,500,500,100,500,200,50,200,500,500,100,500,100,50,200,200,100,200,50,200,100,50,100,100,200,50,50,100,50,200,200,50,100,500,50,100,50,100,50,100,200,50,500,100,500,200,100,50,200,200,50,50,500,50,500,200,100,200,50,50,50,200,200,50,100,200,100,100,200,200,200,100,200,100,200,200,500,50,50"
# Node 5 random traffic
dtnsim.node[5].app.enable = true
dtnsim.node[5].app.bundlesNumber = "48,50,49,1,9,38,48,45,20,25,36,34,5,35,28,24,8,47,18,48,22,8,13,32,16,40,46,1,31,5,9,7,40,11,37,9,7,13,23,9,27,3,36,23,48,6,16,31,8,18,49,41,42,22,49,47,30,46,11,19,32,27,50,28,5,13,34,10,26,18,50,42,24,19,18,35,7,41,20,34,42,50,46,49,46,20,13,49,5,43,41,42,11,32,21,30,28,41,37,41"
dtnsim.node[5].app.start = "61,66,20,3,48,96,70,93,44,78,36,24,45,74,15,79,3,60,88,1,44,46,52,70,86,42,15,19,97,56,14,20,24,48,15,46,48,20,18,38,60,64,72,71,42,62,14,51,72,31,91,21,57,29,49,46,97,95,90,97,2,27,73,93,79,93,10,58,71,48,61,4,3,33,44,95,71,59,24,68,26,68,4,74,5,9,53,64,97,51,18,55,46,37,11,21,31,83,99,62"
dtnsim.node[5].app.destinationEid = "136,70,50,122,94,178,129,2,119,92,109,27,34,143,7,73,176,24,57,30,146,155,107,29,11,172,91,95,10,172,162,126,50,81,74,68,174,143,96,69,122,77,20,102,135,143,13,121,77,160,113,39,149,117,17,94,130,88,87,89,87,44,156,1,27,164,79,84,44,83,77,14,12,151,55,137,157,44,142,172,68,169,124,100,59,29,125,131,154,64,91,58,130,108,55,151,126,149,119,117"
dtnsim.node[5].app.size = "200,500,200,500,200,50,100,500,500,50,200,500,200,200,50,50,500,100,50,100,100,50,50,200,100,200,200,50,50,50,100,200,100,500,500,50,50,100,50,500,100,50,500,500,200,50,100,100,100,500,50,50,50,50,200,200,100,50,50,500,100,200,200,200,50,200,200,50,200,200,100,500,200,500,50,200,100,100,100,200,50,100,100,200,50,200,500,50,50,200,50,100,50,100,50,500,100,200,50,50"
# Node 6 random traffic
dtnsim.node[6].app.enable = true
dtnsim.node[6].app.bundlesNumber = "39,8,18,40,41,29,1,43,48,30,13,13,44,37,13,45,17,50,45,44,4,41,31,21,34,42,27,4,23,50,48,29,25,26,29,17,47,35,26,4,37,50,9,19,32,15,23,31,17,15,25,19,32,39,28,2,47,43,36,44,10,39,12,21,30,20,46,48,7,31,1,25,27,5,26,40,37,11,49,28,15,31,48,33,9,36,18,16,36,37,45,49,38,8,28,24,7,46,45,48"
dtnsim.node[6].app.start = "22,78,43,36,47,64,72,3,36,82,18,29,31,58,84,35,44,57,89,88,25,66,82,89,64,67,94,92,75,24,48,70,84,54,96,47,31,19,57,9,76,79,63,8,10,9,14,80,96,18,20,43,13,64,98,21,64,93,24,30,12,69,55,58,34,42,34,54,54,9,30,79,73,60,3,13,63,71,1,65,30,36,37,84,60,85,32,89,70,50,9,6,3,61,11,31,50,15,75,93"
dtnsim.node[6].app.destinationEid = "180,168,95,20,159,85,32,159,36,114,76,27,177,175,76,22,114,163,155,132,53,148,160,108,45,10,111,79,34,22,64,93,179,134,169,129,179,167,110,162,1,32,162,146,54,39,144,112,179,100,51,52,129,61,27,129,157,110,21,180,116,61,78,26,19,52,7,87,138,136,39,131,175,132,23,87,69,82,161,2,124,140,30,173,25,35,10,175,96,41,54,167,33,101,73,146,34,93,107,61"
dtnsim.node[6].app.size = "200,500,500,500,500,200,50,200,200,50,100,500,50,50,50,500,100,200,50,100,100,100,200,50,500,200,100,50,200,500,200,100,500,500,200,200,50,500,100,500,200,100,200,50,100,100,100,200,200,100,500,100,500,200,200,100,100,200,100,500,100,200,100,500,100,100,100,50,500,500,500,500,500,100,100,100,500,50,200,50,200,200,50,50,500,200,50,100,200,200,50,200,100,500,500,500,500,50,200,100"
# Node 7 random traffic
dtnsim.node[7].app.enable = true
dtnsim.node[7].app.bundlesNumber = "3,35,37,13,37,13,14,42,22,41,11,16,22,37,7,5,35,5,39,18,24,44,10,3,49,14,46,11,42,14,43,42,33,25,4,30,24,46,5,15,19,19,4,36,9,27,30,40,41,47,42,37,46,21,34,49,13,26,46,34,9,37,16,21,27,27,26,12,28,2,21,34,18,24,37,50,46,1,5,4,24,8,4,38,39,36,6,5,23,7,15,44,3,26,10,33,12,8,23,13"
dtnsim.node[7].app.start = "7,92,9,24,15,83,35,4,87,92,42,97,46,45,93,33,29,61,72,80,17,45,70,31,54,39,74,3,33,98,36,15,77,72,94,82,17,80,89,68,18,77,79,40,26,67,85,82,28,65,98,9,68,64,12,33,86,39,28,82,59,88,29,82,30,38,22,5,22,6,8,77,3,59,50,68,80,11,22,50,8,62,5,7,59,57,40,71,90,6,61,9,88,79,58,13,54,12,82,83"
dtnsim.node[7].app.destinationEid = "50,38,68,37,179,56,118,173,152,56,130,41,162,25,144,157,166,152,178,2,75,146,17,67,44,15,56,67,123,171,91,180,48,60,82,146,179,89,138,79,124,49,107,23,36,17,138,59,30,51,93,150,16,39,8,156,144,85,98,149,96,85,58,137,157,70,18,154,2,90,52,55,78,105,115,144,39,118,105,116,172,41,51,92,157,136,138,39,71,69,49,41,50,69,178,98,62,107,91,134"
dtnsim.node[7].app.size = "100,500,500,50,200,100,500,500,200,100,50,200,200,50,500,100,100,500,100,50,100,200,50,100,500,50,100,200,200,500,500,200,200,50,200,100,500,500,100,500,500,500,500,200,500,50,200,200,500,50,200,500,100,100,100,500,50,50,200,500,100,50,500,50,100,100,50,50,500,100,500,500,500,500,50,50,100,500,500,100,100,500,100,500,500,50,200,200,50,100,200,100,500,500,50,100,50,200,200,200"
# Node 8 random traffic
dtnsim.node[8].app.enable = true
dtnsim.node[8].app.bundlesNumber = "31,2,15,17,5,12,31,17,39,34,3,39,38,46,25,6,42,4,2,45,50,11,9,30,10,21,16,22,24,30,7,11,19,28,36,15,23,37,37,32,45,16,3,13,7,37,31,18,17,1,21,11,47,32,33,32,12,28,1,12,30,27,33,8,37,6,33,16,15,37,30,41,33,40,16,13,30,37,11,43,34,16,1,16,48,42,9,12,9,1,32,50,34,38,17,6,22,24,1,13"
dtnsim.node[8].app.start = "47,56,27,29,65,81,41,35,85,1,1,6,1,98,73,65,1,94,32,16,41,9,3,100,79,87,63,72,13,48,16,60,91,20,86,7,92,1,18,18,83,95,55,33,84,61,38,66,57,36,5,57,2,82,47,27,54,17,59,65,81,22,85,95,55,85,6,66,81,72,89,95,30,51,19,87,82,31,68,54,90,17,43,93,76,27,60,20,57,52,72,55,98,47,49,73,62,43,51,39"
dtnsim.node[8].app.destinationEid = "106,20,86,13,84,123,39,6,122,23,69,15,65,156,116,71,57,63,107,125,160,23,52,177,58,107,164,102,109,150,82,81,72,76,57,123,169,52,81,78,127,96,86,159,110,107,91,52,136,115,59,58,145,70,112,174,96,150,95,155,106,59,46,34,3,117,146,50,50,123,81,53,155,152,24,166,4,144,111,180,123,4,146,81,54,128,123,164,167,78,107,176,75,161,64,63,112,66,36,5"
dtnsim.node[8].app.size = "50,200,500,100,500,100,200,200,100,100,500,500,100,200,100,50,200,500,500,100,50,100,200,200,500,100,50,100,100,500,500,50,50,50,50,500,500,200,100,500,500,200,50,200,50,200,500,50,50,50,200,200,500,100,500,500,500,100,200,200,200,100,50,200,50,500,50,100,500,200,50,50,200,200,50,100,50,50,500,50,100,200,50,100,500,50,500,100,200,200,50,200,50,100,100,500,500,50,200,50"
# Node 9 random traffic
dtnsim.node[9].app.enable = true
dtnsim.node[9].app.bundlesNumber = "10,7,12,6,3,49,24,42,48,33,42,25,10,4,1,36,10,49,20,9,9,35,25,4,4,50,35,34,45,25,27,37,21,14,6,16,27,8,24,15,1,7,10,11,19,22,28,24,40,24,2,40,34,32,1,47,16,49,10,17,13,47,7,42,29,27,12,21,44,25,18,31,6,8,42,28,10,2,3,26,20,38,8,46,3,43,38,40,22,28,39,44,2,31,40,1,6,44,37,15"
dtnsim.node[9].app.start = "35,89,1,2,3,25,19,82,44,37,44,95,37,18,65,53,6,80,34,15,35,86,15,39,23,97,52,88,92,33,81,61,76,63,8,5,43,46,18,21,17,8,58,39,60,22,67,11,70,82,43,70,27,52,95,63,55,36,14,77,4,63,59,40,86,82,27,71,54,90,85,59,80,43,32,51,86,34,51,51,34,4,83,2,40,100,2,77,33,71,69,57,94,45,25,47,71,73,39,82"
dtnsim.node[9].app.destinationEid = "80,158,114,49,112,11,109,165,54,128,161,171,17,154,166,23,94,131,82,161,126,28,92,174,17,60,47,126,103,62,171,72,149,176,23,91,75,101,26,138,44,94,168,167,99,75,111,124,165,58,87,155,120,176,45,135,89,168,123,60,97,77,74,102,102,65,164,112,114,177,2,80,105,159,130,24,55,55,42,28,23,77,96,137,122,36,18,20,4,169,112,160,31,128,34,133,106,54,32,29"
dtnsim.node[9].app.size = "100,50,500,500,200,50,500,100,50,200,500,500,500,50,100,100,50,100,200,200,200,50,50,100,100,500,200,500,100,200,200,200,200,100,500,200,100,100,100,500,500,200,200,50,200,100,500,200,50,500,100,200,500,100,500,200,100,500,200,50,500,500,100,200,50,500,50,50,100,500,200,500,200,500,200,500,50,50,500,50,500,200,50,200,100,100,200,200,200,200,100,100,100,50,100,500,50,100,50,100"
# Node 10 random traffic
dtnsim.node[10].app.enable = true
dtnsim.node[10].app.bundlesNumber = "49,13,28,40,42,3,22,6,29,1,27,2,28,20,46,45,42,9,47,29,36,42,42,35,18,30,32,28,33,5,30,26,41,38,3,28,15,21,12,24,25,3,13,9,25,39,21,26,21,1,24,14,24,31,9,7,22,6,38,8,15,11,25,27,15,5,24,2,16,5,32,37,3,30,12,44,49,20,31,50,3,25,23,6,16,8,46,4,35,40,34,6,16,47,45,6,46,7,47,45"
dtnsim.node[10].app.start = "50,94,55,20,99,93,80,83,11,84,34,15,10,21,37,20,63,78,42,26,49,50,45,78,77,44,44,8,89,48,31,21,4,57,17,83,53,42,89,51,99,86,43,68,77,65,35,26,80,40,31,97,46,6,97,78,52,11,100,63,18,87,29,24,68,46,44,28,74,54,20,21,78,18,40,43,60,1,91,30,2,83,18,50,10,9,24,15,51,44,14,46,88,57,49,47,43,31,44,91"
dtnsim.node[10].app.destinationEid = "163,29,40,109,72,80,88,132,63,156,34,38,135,170,57,63,33,136,148,46,93,96,108,173,121,57,36,18,5,75,3,137,155,6,63,122,44,60,83,55,154,46,55,142,39,29,168,139,71,72,82,172,22,124,87,43,130,161,163,152,28,75,165,141,147,145,135,55,139,73,168,159,94,71,162,106,55,23,24,166,7,12,76,152,42,6,148,163,92,110,76,130,26,41,79,174,172,126,127,54"
dtnsim.node[10].app.size = "200,100,100,100,200,500,200,500,500,50,200,200,500,50,100,200,500,50,100,50,50,50,100,50,50,100,500,200,500,200,50,500,50,200,50,50,500,200,500,500,100,200,500,50,50,500,500,50,200,100,500,500,100,100,500,200,200,50,200,200,200,50,500,500,200,50,500,50,200,100,500,200,200,50,500,500,50,500,500,100,500,500,100,200,200,50,50,50,50,200,500,200,200,200,200,100,50,200,100,500"
# Node 11 random traffic
dtnsim.node[11].app.enable = true
dtnsim.node[11].app.bundlesNumber = "35,50,26,22,3,8,45,3,27,30,28,2,42,49,33,50,11,17,50,29,10,14,10,49,28,41,38,5,33,12,45,21,9,50,31,38,34,41,50,13,46,49,22,31,46,20,1,36,48,26,31,43,40,25,3,13,15,48,12,17,19,26,12,13,19,33,27,34,47,29,6,28,41,6,32,3,42,31,46,45,29,50,13,24,38,27,46,49,46,1,5,35,33,44,6,23,16,38,13,28"
dtnsim.node[11].app.start = "91,74,10,23,29,64,11,78,9,11,25,75,50,71,39,69,35,54,6,70,9,49,49,28,85,78,56,72,19,61,20,26,24,27,68,2,48,72,79,48,85,96,99,53,11,58,13,28,97,30,36,21,75,58,33,1,11,64,17,16,54,87,33,66,41,65,18,26,85,32,72,43,7,1,81,74,100,39,11,10,1,87,57,97,57,37,10,10,96,12,91,25,21,55,22,32,14,43,54,12"
dtnsim.node[11].app.destinationEid = "32,32,5,106,125,80,130,160,22,74,27,122,86,38,149,100,144,114,134,84,43,9,53,86,179,12,118,137,6,32,49,173,135,157,17,95,23,162,171,148,179,110,93,158,113,40,33,157,70,159,140,24,83,113,171,65,175,76,53,25,120,48,150,150,31,9,111,149,8,59,89,111,14,66,167,59,32,51,58,17,165,80,44,29,5,67,34,39,107,128,35,74,45,120,25,17,163,108,135,112"
dtnsim.node[11].app.size = "200,500,50,200,50,100,50,50,200,50,500,200,50,500,50,50,200,500,200,100,50,500,50,100,50,100,200,100,100,50,200,50,100,500,100,200,50,50,200,200,500,100,500,200,100,100,500,200,100,500,50,500,50,500,500,100,500,200,500,200,200,200,50,200,500,500,200,100,100,500,50,50,50,100,200,50,500,50,200,100,50,100,50,100,200,50,200,50,100,50,100,100,100,100,100,500,50,100,50,100"
# Node 12 random traffic
dtnsim.node[12].app.enable = true
dtnsim.node[12].app.bundlesNumber = "45,10,11,22,12,49,34,21,38,12,9,35,29,9,47,36,33,16,10,32,7,37,14,4,1,14,26,35,36,17,20,38,15,11,50,44,36,47,3,27,40,30,14,9,11,35,23,36,21,40,4,37,17,5,17,10,4,27,11,46,18,43,49,2,40,36,20,25,48,15,16,7,7,43,47,4,29,18,45,3,40,44,20,41,1,32,27,50,15,25,42,34,32,40,36,23,48,36,17,4"
dtnsim.node[12].app.start = "17,46,13,40,4,23,50,90,11,78,43,24,92,33,66,91,51,36,69,6,44,19,88,2,9,69,18,52,43,91,14,67,77,18,97,83,15,45,60,26,52,87,85,8,52,64,60,63,7,81,7,10,51,16,60,73,56,51,17,55,52,31,69,92,9,7,9,90,77,26,97,97,43,7,72,44,12,32,31,49,42,8,19,61,100,14,60,71,97,25,41,83,56,84,86,57,72,58,2,23"
dtnsim.node[12].app.destinationEid = "118,25,39,42,11,177,132,30,89,179,112,25,62,102,85,120,166,28,33,33,142,101,6,80,175,152,18,150,131,52,82,50,50,121,172,179,58,173,159,114,56,163,117,172,16,70,170,158,48,142,167,17,155,96,167,72,4,75,94,157,27,105,128,17,90,75,16,122,130,29,69,100,4,70,60,104,147,117,154,62,18,79,153,60,170,155,163,16,51,92,68,2,73,169,100,177,159,76,131,53"
dtnsim.node[12].app.size = "50,100,200,50,200,100,50,500,50,100,200,100,500,100,100,500,200,200,50,100,500,100,200,200,100,500,200,50,100,50,200,100,100,500,200,500,100,50,200,500,500,200,500,100,500,100,50,100,500,50,200,200,100,50,200,50,100,500,50,50,500,200,200,500,200,500,200,100,200,200,200,200,50,50,50,500,200,500,500,200,100,200,500,200,100,100,100,100,50,500,200,100,100,200,100,50,200,200,100,50"
# Node 13 random traffic
dtnsim.node[13].app.enable = true
dtnsim.node[13].app.bundlesNumber = "35,41,3,39,47,17,8,2,47,36,20,28,2,18,22,34,23,10,27,4,29,33,34,21,12,34,14,29,10,33,39,36,42,7,26,22,43,16,40,20,31,20,49,39,6,18,47,36,7,20,22,22,7,45,43,25,23,22,10,28,41,38,36,13,48,50,29,44,29,11,1,48,8,5,15,4,23,16,1,1,18,7,32,16,49,15,9,17,31,32,29,3,11,22,29,2,26,9,15,47"
dtnsim.node[13].app.start = "32,14,89,34,28,77,45,97,70,69,97,3,34,27,85,5,33,63,67,25,35,40,34,83,60,27,61,10,85,23,21,24,51,88,49,72,10,87,45,28,18,19,43,17,72,57,10,87,19,22,77,21,57,52,68,90,85,72,30,47,59,79,86,95,4,78,77,66,22,98,83,50,28,64,74,20,90,43,50,27,92,99,99,5,92,56,12,44,77,85,13,17,43,23,62,96,26,24,62,47"
dtnsim.node[13].app.destinationEid = "177,108,159,47,177,178,159,164,3,134,31,107,10,129,78,77,140,146,68,141,27,175,94,38,123,152,5,23,128,27,146,69,52,129,177,128,147,46,88,52,140,97,167,137,149,38,18,86,47,106,70,25,107,12,51,83,9,44,116,120,158,107,173,180,24,49,26,11,90,170,175,11,115,167,128,66,86,55,66,36,38,176,21,48,60,16,72,125,42,79,165,130,6,125,86,49,14,32,56,95"
dtnsim.node[13].app.size = "200,50,500,50,500,500,50,500,50,100,100,50,500,200,200,200,500,500,200,500,500,100,100,200,200,200,50,200,50,100,100,50,50,100,500,50,200,100,100,100,500,200,200,100,200,500,200,50,500,50,200,500,100,200,100,500,200,50,100,200,500,500,200,200,50,500,100,200,200,100,100,200,200,200,100,500,100,100,500,500,50,200,50,50,100,100,200,200,200,50,100,200,100,100,100,100,50,100,100,500"
# Node 14 random traffic
dtnsim.node[14].app.enable = true
dtnsim.node[14].app.bundlesNumber = "16,26,39,4,25,42,2,14,4,40,10,32,33,36,18,33,5,32,49,36,31,18,20,27,17,15,10,3,38,16,5,13,9,43,27,19,25,31,40,30,28,13,26,11,22,18,4,43,21,39,13,22,15,41,25,42,26,15,45,19,20,23,44,32,6,43,34,35,13,3,44,47,11,43,27,5,44,23,32,43,35,35,39,8,16,17,32,24,25,11,20,3,47,39,2,47,6,1,38,44"
dtnsim.node[14].app.start = "58,44,21,60,81,13,81,49,68,10,59,37,46,1,20,32,26,74,51,5,33,42,98,66,39,57,92,19,38,56,32,66,78,22,93,54,40,58,38,27,31,51,18,28,47,2,7,4,75,47,69,87,47,32,78,59,60,94,95,21,23,23,26,99,78,42,96,46,64,68,77,85,12,4,3,21,36,57,33,93,87,33,38,96,92,54,86,70,47,96,44,11,14,34,9,95,7,25,55,98"
dtnsim.node[14].app.destinationEid = "66,154,100,113,29,18,55,72,71,29,11,44,71,66,106,3,90,57,147,116,16,149,122,155,24,79,41,150,78,155,15,144,77,54,57,165,5,179,145,124,101,126,130,94,179,38,71,147,64,120,84,55,1,59,41,16,168,70,116,171,159,167,139,172,132,32,4,130,100,149,47,143,34,122,127,12,61,159,148,92,96,134,67,39,144,161,101,95,33,146,136,43,143,57,62,62,162,163,119,33"
dtnsim.node[14].app.size = "200,200,200,200,500,100,100,500,500,200,50,200,50,500,200,50,50,100,100,100,500,100,100,100,50,100,100,500,500,50,200,50,50,50,500,50,100,50,50,200,500,500,50,100,100,50,100,500,100,50,100,50,500,500,500,500,100,100,100,100,500,50,50,100,500,500,200,50,50,500,50,200,100,500,500,500,50,500,200,100,500,50,500,50,50,50,50,50,50,50,200,500,100,50,100,100,100,500,500,200"
# Node 15 random traffic
dtnsim.node[15].app.enable = true
dtnsim.node[15].app.bundlesNumber = "40,19,2,1,44,11,47,41,19,44,34,47,11,25,48,41,34,19,4,22,24,46,31,33,23,24,29,44,28,49,42,32,46,23,30,30,42,41,43,36,27,29,3,12,9,27,3,30,22,25,12,31,32,40,46,2,38,21,20,11,39,29,2,23,26,50,40,38,5,24,26,40,40,9,35,31,12,14,42,37,7,33,30,18,16,7,16,29,37,5,48,38,31,47,17,32,33,27,12,26"
dtnsim.node[15].app.start = "53,54,58,77,59,60,65,73,14,49,37,18,78,15,50,87,92,9,13,6,17,68,70,20,43,21,54,20,6,74,48,60,91,39,51,4,27,59,13,26,10,6,38,78,54,94,67,94,92,82,26,95,21,34,31,19,89,67,91,9,93,17,12,37,9,22,27,65,63,84,74,86,64,27,20,7,40,86,33,9,19,88,28,99,100,80,61,64,75,19,48,30,71,22,27,88,16,18,57,68"
dtnsim.node[15].app.destinationEid = "1,111,169,119,49,53,155,143,63,155,12,99,159,168,177,21,27,101,167,57,58,125,129,34,130,8,30,19,32,180,64,138,107,39,169,145,111,136,72,146,124,157,127,35,103,126,58,121,138,49,106,77,71,80,134,177,8,30,164,40,127,108,11,105,81,40,169,41,128,36,134,83,42,176,111,37,30,11,36,127,121,6,90,42,121,23,97,137,26,52,85,145,23,30,89,98,118,24,82,165"
dtnsim.node[15].app.size = "500,50,50,50,100,100,500,100,200,100,500,100,500,50,200,200,500,500,500,200,500,500,100,500,200,50,100,100,50,200,200,100,200,100,200,50,500,200,200,500,100,100,100,50,50,100,100,500,50,200,100,50,500,200,200,200,100,500,100,200,100,500,200,500,50,200,200,200,50,200,200,500,500,500,100,500,200,100,500,50,200,200,200,200,200,50,500,50,100,200,500,100,100,500,100,100,500,50,100,50"
# Node 16 random traffic
dtnsim.node[16].app.enable = true
dtnsim.node[16].app.bundlesNumber = "40,14,30,37,29,18,35,37,24,34,48,20,10,18,24,43,28,42,44,39,23,16,19,33,4,50,9,45,36,3,8,48,47,48,2,34,31,5,33,25,15,14,42,33,36,33,9,16,14,5,12,40,11,2,14,22,14,46,28,1,4,8,37,12,34,41,18,4,10,9,11,48,21,46,50,47,33,6,7,29,14,30,46,39,14,42,3,19,16,41,36,48,37,30,34,4,39,40,44,42"
dtnsim.node[16].app.start = "97,27,14,92,38,62,4,33,48,10,59,5,16,90,44,75,50,47,57,60,17,8,21,33,37,30,94,65,7,72,97,6,28,42,63,100,51,93,52,78,9,57,41,97,48,35,21,32,58,24,40,96,96,13,59,36,85,42,93,32,7,10,45,61,83,44,36,6,4,65,30,37,59,58,22,9,36,79,91,69,55,30,2,60,93,22,75,79,95,62,32,89,12,18,17,7,30,87,64,7"
dtnsim.node[16].app.destinationEid = "66,81,22,126,105,141,122,177,144,71,121,104,1,61,128,178,17,49,178,31,12,44,80,46,24,100,180,28,3,67,37,137,3,45,130,156,161,19,84,18,94,73,36,110,106,39,45,75,123,70,109,11,136,57,139,87,141,9,1,44,50,65,36,92,91,114,30,45,110,168,61,127,14,164,77,79,111,70,61,150,26,132,25,57,111,154,123,139,103,154,88,125,170,136,80,130,145,180,10,12"
dtnsim.node[16].app.size = "200,500,200,500,200,100,50,50,100,100,500,50,500,200,50,500,100,50,100,500,50,200,500,100,500,500,200,50,50,500,500,500,100,100,200,50,500,500,200,100,50,50,500,100,200,500,50,50,100,50,50,100,100,50,100,50,200,200,100,200,200,500,500,500,100,100,50,200,500,500,500,200,50,100,200,50,200,200,200,100,500,50,500,100,500,100,50,200,200,50,100,50,50,50,50,50,200,50,500,200"
# Node 17 random traffic
dtnsim.node[17].app.enable = true
dtnsim.node[17].app.bundlesNumber = "2,2,13,2,22,9,19,11,35,47,42,12,49,46,11,41,11,46,34,43,47,27,46,17,27,48,6,1,23,23,28,49,8,31,48,8,47,45,10,26,30,39,7,37,34,19,12,36,25,33,43,31,39,8,18,43,40,50,3,1,27,2,17,27,47,48,37,36,50,1,30,22,40,25,43,30,38,5,18,25,14,50,50,16,33,33,36,44,25,11,1,29,23,5,31,23,38,6,10,32"
dtnsim.node[17].app.start = "70,98,96,80,92,69,79,15,85,14,57,91,1,20,16,31,66,41,11,12,37,69,67,95,7,37,16,91,53,58,25,57,19,39,81,22,66,72,73,53,57,15,84,97,7,64,94,31,23,75,28,67,62,89,45,27,40,44,70,45,32,77,20,41,18,1,5,9,32,73,27,31,17,50,93,35,42,4,98,53,95,67,44,50,4,55,20,95,54,47,45,26,66,43,25,68,43,89,72,81"
dtnsim.node[17].app.destinationEid = "127,123,1,67,131,9,59,36,119,153,166,141,177,76,42,97,19,25,3,86,11,142,85,115,38,139,149,2,77,62,143,149,54,120,133,36,78,130,120,165,94,141,27,80,131,176,158,5,104,72,60,43,146,56,127,98,29,109,115,134,90,130,83,29,9,173,76,175,157,9,53,62,24,151,133,13,71,47,114,48,168,35,95,142,54,120,136,163,176,167,2,118,133,133,175,32,128,67,28,92"
dtnsim.node[17].app.size = "200,500,50,200,50,200,100,200,50,200,50,200,500,50,500,100,500,200,200,50,200,100,100,50,500,200,50,200,50,50,200,200,100,100,50,100,200,200,100,100,50,50,200,500,200,500,50,200,200,200,200,200,500,50,200,50,500,200,50,500,500,100,200,50,200,500,200,500,100,100,500,100,500,50,200,100,100,200,100,50,200,500,50,100,200,500,50,500,50,200,200,100,200,500,50,500,50,200,50,500"
# Node 18 random traffic
dtnsim.node[18].app.enable = true
dtnsim.node[18].app.bundlesNumber = "46,7,23,17,49,45,36,6,9,49,42,37,39,11,7,22,6,36,32,9,2,2,12,47,11,16,35,20,7,36,2,33,8,31,21,32,10,11,44,24,34,14,23,41,12,49,19,40,3,4,9,41,11,5,23,48,41,31,49,23,6,5,42,44,3,45,19,27,40,39,4,20,8,22,3,4,45,33,1,20,30,44,26,36,45,21,6,45,6,34,33,38,24,17,43,29,39,28,47,12"
dtnsim.node[18].app.start = "82,6,81,96,38,30,20,80,85,68,39,79,41,62,1,57,96,36,70,76,31,64,75,63,50,87,74,66,70,79,72,25,66,60,66,34,74,15,98,56,36,24,100,82,29,32,32,78,36,41,67,90,61,72,1,89,12,70,23,77,72,99,86,45,22,42,37,59,14,55,66,83,61,47,88,83,13,48,66,63,39,1,35,25,95,69,26,32,4,46,67,80,36,73,42,67,86,4,70,57"
dtnsim.node[18].app.destinationEid = "145,55,20,168,104,177,45,88,152,151,44,15,21,122,43,129,147,49,156,125,180,148,10,112,165,165,74,67,60,157,8,137,36,81,67,39,36,105,132,25,106,162,29,43,102,176,154,140,73,120,178,57,25,169,49,22,158,9,3,89,6,99,166,36,95,111,21,154,93,152,11,63,47,123,47,180,100,164,23,148,62,148,146,114,102,4,72,36,134,32,74,111,10,19,126,50,169,150,32,119"
dtnsim.node[18].app.size = "50,200,100,200,50,500,100,500,50,200,50,50,500,500,50,500,100,100,200,200,50,500,200,50,50,100,500,200,500,100,500,100,500,200,100,200,50,200,100,500,100,200,200,500,500,50,100,100,100,500,50,500,50,100,500,100,100,200,50,200,50,100,500,50,200,500,100,500,50,50,200,200,100,50,500,200,200,200,200,200,500,500,100,500,200,50,200,50,100,200,50,100,50,200,200,200,50,100,500,50"
# Node 19 random traffic
dtnsim.node[19].app.enable = true
dtnsim.node[19].app.bundlesNumber = "40,25,19,26,25,42,35,25,2,23,25,12,11,34,18,8,15,27,3,33,16,37,7,50,21,14,4,9,22,3,41,9,2,1,23,13,31,27,19,12,29,19,12,20,20,48,21,8,49,9,13,48,36,8,50,48,39,14,35,8,44,44,7,7,49,8,34,34,37,4,49,36,21,23,34,17,35,28,46,14,19,22,1,36,47,34,20,28,11,12,2,36,34,46,18,47,35,21,35,43"
dtnsim.node[19].app.start = "35,43,99,68,13,41,6,67,83,71,65,47,69,56,100,58,54,97,56,94,48,72,24,25,91,60,38,93,65,88,77,38,29,89,42,95,36,30,97,57,43,83,12,87,88,10,59,52,12,71,76,71,90,78,9,49,70,67,69,67,25,43,42,79,19,94,25,47,49,14,74,16,37,51,60,10,7,10,3,42,38,87,87,81,81,90,97,69,93,84,30,40,81,41,11,80,84,84,84,37"
dtnsim.node[19].app.destinationEid = "5,43,5,120,38,30,14,30,49,38,44,6,68,41,58,156,82,134,155,66,17,104,21,71,81,177,34,45,112,139,113,86,120,115,122,113,9,11,159,44,159,57,18,143,76,73,107,4,66,8,43,34,106,88,101,102,70,128,56,74,140,126,31,142,101,163,133,84,170,60,76,153,14,72,115,84,135,43,174,162,152,55,20,37,161,134,1,52,111,155,58,79,117,34,54,42,30,42,147,35"
dtnsim.node[19].app.size = "500,50,50,200,200,500,100,200,100,200,500,100,500,50,500,500,500,200,50,500,200,50,100,50,200,50,200,500,500,50,50,50,100,500,500,100,500,50,100,100,100,200,500,200,200,200,100,50,50,500,50,500,100,100,100,100,100,200,100,200,100,200,200,500,500,50,50,500,500,200,100,50,50,50,50,50,500,500,100,200,100,500,500,200,100,50,500,100,50,200,50,200,100,200,50,50,100,500,100,100"
# Node 20 random traffic
dtnsim.node[20].app.enable = true
dtnsim.node[20].app.bundlesNumber = "20,15,16,49,18,45,20,33,19,1,36,17,42,42,13,24,28,14,26,25,49,41,20,15,35,4,12,1,41,46,36,38,39,26,7,49,44,14,24,39,30,48,22,29,15,18,5,8,9,36,29,30,43,13,2,26,2,10,13,26,18,50,8,25,19,2,36,19,3,46,3,19,28,47,25,44,22,25,49,26,41,16,19,6,40,11,35,45,39,31,41,25,11,46,31,48,3,14,2,21"
dtnsim.node[20].app.start = "34,36,58,25,52,38,52,26,10,72,63,83,83,100,40,30,21,6,36,67,32,59,50,17,50,11,12,90,70,20,86,17,69,48,18,36,67,46,41,75,38,48,74,76,1,41,46,32,6,5,69,30,86,49,20,69,11,41,66,70,4,39,53,20,49,96,66,65,87,20,22,23,12,98,27,85,65,74,1,92,85,62,93,2,59,81,91,27,97,64,4,58,84,32,87,97,26,76,4,34"
dtnsim.node[20].app.destinationEid = "100,122,64,45,14,119,163,131,58,82,19,43,82,47,97,178,59,12,119,25,49,90,6,146,46,178,62,23,68,173,137,90,63,41,57,125,70,37,68,99,147,7,56,41,126,76,42,137,10,56,134,145,123,176,113,145,167,145,34,30,100,74,165,136,41,121,180,28,60,161,178,122,131,153,59,171,67,133,127,2,46,8,66,85,9,133,166,13,172,10,52,150,32,6,99,62,49,4,96,72"