[General]
network = src.dtnsim										
repeat = 1
allow-object-stealing-on-deletion = true

# Simulation end time
sim-time-limit = 84600s

# Nodes quantity (identifiers (EiDs) matches their index, EiD=0 is ignored)			
dtnsim.nodesNumber = 360
dtnsim.node[*].icon = "satellite"

# Nodes's failure rates
dtnsim.node[*].fault.enable = true
dtnsim.node[*].fault.meanTTF = 90s
dtnsim.node[*].fault.meanTTR = 10s

# Mobility
dtnsim.node[*].hasMobility = true
dtnsim.node[*].noradModule.satIndex = parentIndex()
dtnsim.node[*].noradModule.satName = "sat"
**.updateInterval = 20s
**.numOfSats = 360
**.satPerPlane = 18
**.altitude = 540
**.planes = 20
**.phaseOffset = 11

dtnsim.node[*].dtn.routing = "antop"
dtnsim.node[*].dtn.printRoutingDebug = true

# --- Random Traffic Configuration ---
# Node 1 random conversational traffic
dtnsim.node[1].app.enable = true
dtnsim.node[1].app.bundlesNumber = "5,1,4,3,5,3,5,3,1,4,2,5,5,2,3,4,2,1,1,3,1,5,2,3,5,5,1,1,4,3,5,3,5,3,3,1,3,4,3,3,2,1,4,1,2,5,5,1,1,3,2,4,3,2,4,1,4,1,3,3,2,1,4,3,3,2,3,2,2,5,5,3,5,1,4,3,5,2,5,5,3,5,1,5,4,5,1,1,5,2,5,5,4,4,3,3,3,4,2,5"
dtnsim.node[1].app.start = "1,7,7,10,16,7,12,12,4,9,8,8,14,6,12,19,13,6,3,10,13,15,12,4,1,1,14,11,2,20,1,9,20,19,1,12,12,2,18,19,12,5,4,15,13,10,20,13,13,15,17,6,8,14,6,2,3,13,5,2,7,9,10,9,5,10,16,11,11,17,11,12,2,7,6,16,10,19,16,12,19,8,11,8,19,14,13,17,15,14,17,1,4,19,12,3,1,6,12,13"
dtnsim.node[1].app.destinationEid = "2,2,2,2,2,2,2,2,2,2,2,2,2,2,2,2,2,2,2,2,2,2,2,2,2,2,2,2,2,2,2,2,2,2,2,2,2,2,2,2,2,2,2,2,2,2,2,2,2,2,2,2,2,2,2,2,2,2,2,2,2,2,2,2,2,2,2,2,2,2,2,2,2,2,2,2,2,2,2,2,2,2,2,2,2,2,2,2,2,2,2,2,2,2,2,2,2,2,2,2"
dtnsim.node[1].app.size = "100,200,200,200,50,100,500,100,200,100,500,200,500,50,200,200,50,500,100,100,50,50,100,50,100,500,50,200,50,100,100,50,50,200,500,500,100,100,500,50,100,500,500,200,100,200,50,50,500,200,200,50,100,100,50,50,100,100,200,500,100,50,50,500,500,200,100,50,50,100,50,100,500,50,500,100,50,100,100,100,100,50,50,100,50,200,500,500,500,500,200,50,500,50,50,500,500,50,100,200"
# Node 2 random conversational traffic
dtnsim.node[2].app.enable = true
dtnsim.node[2].app.bundlesNumber = "5,3,5,4,3,5,3,1,1,5,4,5,3,3,2,4,4,3,4,2,5,5,3,2,4,4,3,2,3,3,3,5,4,2,2,1,1,4,4,2,2,2,3,1,1,2,3,1,3,2,2,5,3,3,5,5,4,3,1,3,3,2,3,3,4,2,4,4,3,1,5,4,3,3,2,3,3,5,4,3,1,2,4,4,4,3,5,5,2,5,3,1,1,2,1,1,4,2,3,3"
dtnsim.node[2].app.start = "6,16,16,18,11,15,18,20,18,16,5,4,3,20,19,5,2,11,20,20,20,7,19,20,14,9,16,20,20,20,20,18,18,17,17,10,8,16,10,17,14,18,20,19,20,9,7,19,17,18,18,16,20,18,20,16,18,2,14,16,10,6,20,11,18,7,2,4,19,7,3,3,1,15,4,7,3,17,9,20,9,8,12,12,15,11,4,4,12,4,10,2,10,13,19,17,19,13,15,7"
dtnsim.node[2].app.destinationEid = "1,1,1,1,1,1,1,1,1,1,1,1,1,1,1,1,1,1,1,1,1,1,1,1,1,1,1,1,1,1,1,1,1,1,1,1,1,1,1,1,1,1,1,1,1,1,1,1,1,1,1,1,1,1,1,1,1,1,1,3,3,3,3,3,3,3,3,3,3,3,3,3,3,3,3,3,3,3,3,3,3,3,3,3,3,3,3,3,3,3,3,3,3,3,3,3,3,3,3,3"
dtnsim.node[2].app.size = "500,200,200,500,100,100,200,50,50,100,100,50,200,200,50,200,100,50,100,100,500,500,500,50,100,100,50,50,500,200,200,200,200,100,200,100,100,50,500,500,100,200,50,200,50,50,200,200,500,200,500,100,50,500,500,100,200,50,100,200,50,200,200,500,100,50,200,100,500,50,200,200,500,200,100,200,500,500,200,500,200,500,200,500,100,200,50,100,100,100,100,50,50,500,100,500,50,200,500,200"
# Node 3 random conversational traffic
dtnsim.node[3].app.enable = true
dtnsim.node[3].app.bundlesNumber = "4,2,3,5,3,5,4,4,3,1,3,2,2,1,3,1,4,2,3,4,2,5,5,3,5,1,3,5,3,1,5,5,1,3,2,3,3,2,5,2,2,5,3,4,1,4,1,1,2,4,1,5,4,5,1,4,5,3,4,5,2,2,1,4,4,2,4,5,4,4,3,2,5,2,3,2,2,1,2,2,5,3,3,5,4,4,3,4,3,3,1,1,3,4,3,4,5,3,2,5"
dtnsim.node[3].app.start = "20,11,20,13,3,14,13,7,2,18,13,6,12,13,14,17,7,19,6,7,14,20,20,18,17,19,14,1,10,14,19,9,16,10,20,8,4,2,8,16,9,8,6,14,6,16,20,10,12,10,12,17,8,9,18,17,3,6,16,4,5,3,13,19,11,7,12,2,10,6,8,5,8,13,3,11,15,15,16,17,17,2,12,17,12,16,7,16,5,20,13,3,1,17,1,12,6,16,3,13"
dtnsim.node[3].app.destinationEid = "2,2,2,2,2,2,2,2,2,2,2,2,2,2,2,2,2,2,2,2,2,2,2,2,2,4,4,4,4,4,4,4,4,4,4,4,4,4,4,4,4,4,4,4,4,4,4,4,4,4,4,4,4,4,4,4,4,4,4,4,4,4,4,4,4,4,4,4,4,4,4,4,4,4,4,4,4,4,4,4,4,4,4,4,4,4,4,4,4,4,4,4,4,4,4,4,4,4,4,4"
dtnsim.node[3].app.size = "200,100,50,200,500,200,100,100,200,100,500,100,100,500,500,500,500,50,50,500,50,500,50,50,100,100,50,50,200,100,200,500,200,200,100,500,500,500,50,200,500,50,500,50,100,50,200,500,200,200,200,500,50,50,500,500,500,100,50,200,200,100,50,500,500,200,50,100,200,100,500,100,200,500,200,200,200,100,500,200,100,200,100,200,50,50,200,200,500,200,50,50,200,50,50,50,500,50,200,50"
# Node 4 random conversational traffic
dtnsim.node[4].app.enable = true
dtnsim.node[4].app.bundlesNumber = "1,4,5,4,4,5,5,5,4,3,5,3,3,3,5,3,5,3,5,4,1,2,5,1,4,1,4,1,5,1,5,3,4,3,3,3,1,2,2,1,4,2,5,1,4,2,4,3,3,5,5,5,2,4,3,4,4,1,4,5,5,1,3,2,2,4,4,1,2,4,2,1,3,1,3,1,5,5,1,1,2,2,2,1,4,3,5,3,5,2,3,2,4,3,2,5,2,1,2,4"
dtnsim.node[4].app.start = "20,20,3,19,18,20,17,20,9,14,18,19,15,19,10,20,6,7,17,8,11,14,14,17,3,17,7,16,20,11,19,19,19,15,19,9,19,18,13,5,20,17,12,19,10,20,12,20,12,2,13,8,2,3,19,20,1,7,13,20,12,6,20,6,7,11,6,12,7,6,18,3,19,17,14,11,14,10,9,5,14,13,5,17,2,16,12,5,12,11,4,14,20,3,17,3,5,17,17,8"
dtnsim.node[4].app.destinationEid = "3,3,3,3,3,3,3,3,3,3,3,3,3,3,3,3,3,3,3,3,3,3,3,3,3,3,3,3,3,3,3,3,3,3,3,3,3,3,3,3,3,3,3,3,3,3,5,5,5,5,5,5,5,5,5,5,5,5,5,5,5,5,5,5,5,5,5,5,5,5,5,5,5,5,5,5,5,5,5,5,5,5,5,5,5,5,5,5,5,5,5,5,5,5,5,5,5,5,5,5"
dtnsim.node[4].app.size = "50,50,50,100,100,200,500,200,100,100,100,100,50,200,100,500,500,200,100,500,500,500,50,50,50,200,100,200,200,50,100,50,100,500,500,100,500,200,200,50,100,200,200,200,200,50,100,50,500,500,500,500,100,200,500,500,200,500,100,100,500,100,50,200,100,50,100,500,500,100,50,100,500,100,500,200,200,500,100,100,100,100,100,500,50,50,50,200,200,100,200,500,200,200,50,100,200,500,50,200"
# Node 5 random conversational traffic
dtnsim.node[5].app.enable = true
dtnsim.node[5].app.bundlesNumber = "1,3,4,4,3,3,2,1,5,4,4,3,1,4,3,5,5,5,4,2,5,4,4,5,5,1,3,3,5,4,5,2,1,5,5,2,3,3,2,5,1,4,3,5,5,1,1,5,4,3,3,5,4,3,4,5,3,1,3,2,5,1,2,2,1,4,5,2,3,3,4,2,5,4,1,2,3,5,1,1,1,1,4,3,4,4,2,4,4,3,2,3,3,4,1,1,1,1,3,4"
dtnsim.node[5].app.start = "17,18,5,12,12,20,9,20,20,13,8,20,13,16,19,19,12,20,17,11,19,14,16,15,9,9,17,9,8,17,20,19,6,7,18,20,18,14,4,20,7,3,11,2,7,19,17,13,15,20,8,18,16,16,13,17,16,16,20,13,20,19,5,17,2,4,7,14,20,17,2,6,10,20,7,17,11,16,16,1,15,1,11,12,20,11,2,5,6,8,3,1,2,9,17,12,5,20,11,13"
dtnsim.node[5].app.destinationEid = "4,4,4,4,4,4,4,4,4,4,4,4,4,4,4,4,4,4,4,4,4,4,4,4,4,4,4,4,4,4,4,4,4,4,4,4,4,6,6,6,6,6,6,6,6,6,6,6,6,6,6,6,6,6,6,6,6,6,6,6,6,6,6,6,6,6,6,6,6,6,6,6,6,6,6,6,6,6,6,6,6,6,6,6,6,6,6,6,6,6,6,6,6,6,6,6,6,6,6,6"
dtnsim.node[5].app.size = "500,200,50,500,100,500,50,200,50,200,100,200,50,200,100,100,500,50,100,500,50,200,100,200,50,500,500,200,100,100,200,500,200,100,50,500,200,500,100,200,200,500,200,200,100,200,100,200,50,100,50,200,100,500,200,500,50,100,50,200,100,50,100,50,500,100,100,50,50,100,500,50,500,50,200,500,500,200,200,100,50,500,200,50,50,100,500,200,100,500,100,100,500,500,500,100,100,50,50,100"
# Node 6 random conversational traffic
dtnsim.node[6].app.enable = true
dtnsim.node[6].app.bundlesNumber = "1,5,5,1,5,5,5,5,1,3,1,3,1,2,2,2,5,3,2,2,5,1,3,2,5,4,4,1,2,3,2,4,5,2,2,4,3,1,4,2,4,5,1,2,3,1,3,3,4,1,3,2,1,1,1,5,3,5,4,4,4,3,4,1,2,1,4,4,3,2,5,5,3,1,1,3,2,5,3,3,2,1,1,5,4,4,5,2,5,3,4,1,4,2,5,1,3,3,1,2"
dtnsim.node[6].app.start = "14,20,13,6,14,20,18,10,19,17,19,19,19,18,20,20,20,12,8,14,18,6,12,17,20,13,18,17,12,17,20,5,14,5,9,19,17,15,20,5,19,16,1,13,11,2,20,10,4,6,16,6,2,20,9,5,8,8,12,20,5,10,9,11,5,2,2,6,17,1,11,15,7,18,15,5,6,13,15,9,16,6,15,4,7,5,17,16,19,13,8,7,17,10,19,18,4,9,11,14"
dtnsim.node[6].app.destinationEid = "5,5,5,5,5,5,5,5,5,5,5,5,5,5,5,5,5,5,5,5,5,5,5,5,5,5,5,5,5,5,5,5,5,5,5,5,5,5,5,7,7,7,7,7,7,7,7,7,7,7,7,7,7,7,7,7,7,7,7,7,7,7,7,7,7,7,7,7,7,7,7,7,7,7,7,7,7,7,7,7,7,7,7,7,7,7,7,7,7,7,7,7,7,7,7,7,7,7,7,7"
dtnsim.node[6].app.size = "100,50,50,200,50,200,50,200,50,100,50,50,100,200,100,100,50,500,200,100,50,500,200,200,200,50,100,200,200,50,100,100,200,100,50,200,100,50,200,500,200,50,50,200,200,100,500,200,500,100,50,200,50,500,100,500,50,500,50,100,50,100,200,200,200,50,500,500,500,200,500,500,500,500,100,200,50,50,50,500,200,50,200,200,500,200,100,50,500,100,50,500,100,500,200,200,50,200,50,200"
# Node 7 random conversational traffic
dtnsim.node[7].app.enable = true
dtnsim.node[7].app.bundlesNumber = "1,1,1,1,1,5,5,4,4,1,1,4,3,2,1,5,1,3,1,5,5,4,2,5,4,3,2,5,4,5,5,4,3,3,4,3,4,1,1,4,2,2,1,3,4,1,1,1,5,2,4,4,2,5,2,2,1,4,5,1,1,2,4,5,3,5,5,1,1,3,4,3,5,1,1,3,2,2,3,4,2,3,3,5,2,1,4,3,1,3,3,5,4,3,3,4,2,1,2,1"
dtnsim.node[7].app.start = "7,20,17,16,16,20,5,14,16,9,20,18,13,20,20,15,14,7,19,8,13,20,15,9,18,16,12,11,20,10,15,20,20,20,11,18,14,20,12,19,18,16,20,14,12,4,16,13,8,17,17,20,5,9,18,12,12,13,1,2,19,19,11,6,2,11,18,17,5,16,14,3,20,12,8,9,4,7,17,15,16,2,1,15,9,8,9,11,7,18,15,12,8,1,10,8,2,1,9,6"
dtnsim.node[7].app.destinationEid = "6,6,6,6,6,6,6,6,6,6,6,6,6,6,6,6,6,6,6,6,6,6,6,6,6,6,6,6,6,6,6,6,6,6,6,6,6,6,8,8,8,8,8,8,8,8,8,8,8,8,8,8,8,8,8,8,8,8,8,8,8,8,8,8,8,8,8,8,8,8,8,8,8,8,8,8,8,8,8,8,8,8,8,8,8,8,8,8,8,8,8,8,8,8,8,8,8,8,8,8"
dtnsim.node[7].app.size = "100,100,50,500,200,100,100,50,200,100,500,500,50,500,50,200,500,500,200,200,200,500,500,100,100,50,50,50,50,100,200,500,50,200,500,200,100,200,500,50,50,200,100,500,200,500,100,50,500,100,500,50,50,200,100,100,50,50,50,500,200,500,200,100,50,100,100,50,50,100,500,50,500,200,200,100,500,50,500,50,500,200,100,50,100,200,100,200,100,500,100,50,100,100,50,100,50,500,200,500"
# Node 8 random conversational traffic
dtnsim.node[8].app.enable = true
dtnsim.node[8].app.bundlesNumber = "2,4,2,4,4,3,4,4,2,4,5,5,5,4,5,3,5,4,5,4,5,4,3,1,2,5,1,2,2,5,5,2,2,1,2,2,3,3,2,2,1,2,3,1,3,5,4,5,5,3,3,2,4,2,5,4,3,5,4,1,2,4,4,5,2,4,5,3,4,4,3,3,2,4,2,4,1,2,4,2,2,3,4,1,3,4,1,5,5,4,2,1,2,5,1,4,3,3,5,2"
dtnsim.node[8].app.start = "19,20,20,18,20,15,18,16,20,9,20,19,15,14,6,7,20,19,19,17,4,13,13,18,18,19,9,19,19,10,3,17,12,11,13,7,10,11,11,13,14,12,19,4,11,17,15,9,15,6,18,12,17,5,4,6,7,19,20,17,1,2,2,8,20,8,18,1,2,2,20,5,7,16,10,19,13,6,2,8,20,6,11,15,20,3,6,20,2,2,16,5,8,14,17,1,6,1,3,17"
dtnsim.node[8].app.destinationEid = "7,7,7,7,7,7,7,7,7,7,7,7,7,7,7,7,7,7,7,7,7,7,7,7,7,7,7,7,7,7,7,7,7,7,9,9,9,9,9,9,9,9,9,9,9,9,9,9,9,9,9,9,9,9,9,9,9,9,9,9,9,9,9,9,9,9,9,9,9,9,9,9,9,9,9,9,9,9,9,9,9,9,9,9,9,9,9,9,9,9,9,9,9,9,9,9,9,9,9,9"
dtnsim.node[8].app.size = "100,200,200,100,50,100,50,50,500,200,100,50,50,100,50,100,50,200,100,500,100,100,200,100,100,100,50,100,200,100,200,500,100,500,100,500,200,200,500,200,500,500,200,50,500,200,500,500,50,100,500,200,50,50,500,200,200,50,200,200,200,50,100,50,100,200,100,50,50,50,100,50,500,100,50,50,100,100,200,500,100,500,500,50,500,200,500,100,50,100,500,50,100,200,200,200,100,200,500,500"
# Node 9 random conversational traffic
dtnsim.node[9].app.enable = true
dtnsim.node[9].app.bundlesNumber = "1,4,2,1,2,5,4,1,3,4,2,2,4,2,3,2,1,5,3,3,2,3,4,1,4,5,3,4,1,5,3,5,3,2,4,1,4,3,4,1,3,2,4,1,3,1,5,4,1,2,3,1,5,4,4,2,1,5,1,2,4,1,4,4,3,5,1,5,3,4,3,3,2,4,4,3,2,2,4,1,4,3,5,4,3,2,5,5,5,5,1,2,2,5,2,2,3,3,1,2"
dtnsim.node[9].app.start = "17,17,12,15,18,19,20,20,7,20,15,20,6,10,12,15,20,6,7,18,7,7,6,20,8,16,16,20,19,8,17,20,19,18,20,5,9,20,12,18,13,19,19,11,4,19,17,15,19,20,9,3,16,2,9,20,1,3,1,3,16,8,7,1,5,14,2,15,20,7,4,9,14,12,7,19,10,20,3,11,1,3,6,2,14,20,7,16,7,13,5,17,7,12,15,6,15,2,2,13"
dtnsim.node[9].app.destinationEid = "8,8,8,8,8,8,8,8,8,8,8,8,8,8,8,8,8,8,8,8,8,8,8,8,8,8,8,8,8,8,8,8,8,8,8,8,8,8,8,8,8,8,8,8,8,10,10,10,10,10,10,10,10,10,10,10,10,10,10,10,10,10,10,10,10,10,10,10,10,10,10,10,10,10,10,10,10,10,10,10,10,10,10,10,10,10,10,10,10,10,10,10,10,10,10,10,10,10,10,10"
dtnsim.node[9].app.size = "200,50,50,100,500,100,500,100,100,50,500,200,100,500,100,100,100,100,100,50,200,500,100,200,100,100,100,100,100,100,200,100,100,100,100,500,50,100,100,100,500,50,200,50,500,100,200,50,50,100,100,50,100,200,50,200,500,200,500,500,200,200,500,500,100,100,500,100,200,100,50,50,100,200,200,500,200,50,50,50,100,500,50,50,100,200,500,100,200,200,200,100,500,500,100,500,200,50,100,500"
# Node 10 random conversational traffic
dtnsim.node[10].app.enable = true
dtnsim.node[10].app.bundlesNumber = "4,5,2,1,4,5,1,5,3,4,5,3,5,3,1,1,1,3,1,1,5,2,3,1,5,5,5,5,2,4,1,5,3,1,1,1,3,4,1,5,1,4,2,4,2,4,2,3,1,2,2,2,3,5,5,3,1,5,1,2,1,1,5,5,5,5,5,4,5,3,5,1,3,4,4,4,5,5,3,2,2,1,1,2,3,5,3,4,1,2,4,5,4,1,3,3,1,4,4,4"
dtnsim.node[10].app.start = "20,20,11,14,20,7,6,3,7,11,8,4,8,20,17,17,12,15,16,8,11,20,2,11,17,20,17,19,17,20,12,18,15,14,19,12,16,8,18,12,13,11,19,7,12,4,12,2,11,20,6,15,9,12,11,16,15,12,13,5,5,3,18,9,18,2,20,5,20,17,5,12,14,10,4,15,9,2,4,10,4,13,9,8,7,19,12,5,6,7,16,20,13,9,1,12,14,19,15,10"
dtnsim.node[10].app.destinationEid = "9,9,9,9,9,9,9,9,9,9,9,9,9,9,9,9,9,9,9,9,9,9,9,9,9,9,9,9,9,9,9,9,9,9,9,9,9,9,9,11,11,11,11,11,11,11,11,11,11,11,11,11,11,11,11,11,11,11,11,11,11,11,11,11,11,11,11,11,11,11,11,11,11,11,11,11,11,11,11,11,11,11,11,11,11,11,11,11,11,11,11,11,11,11,11,11,11,11,11,11"
dtnsim.node[10].app.size = "100,50,200,50,50,50,500,100,200,100,200,100,50,100,100,200,200,50,200,50,200,100,50,200,200,500,500,200,200,200,100,500,50,200,50,50,200,500,200,50,500,50,200,50,500,500,100,50,200,100,500,200,200,200,500,100,500,100,50,100,500,200,200,200,500,200,200,50,50,50,200,200,500,200,200,200,200,200,100,50,100,200,500,50,200,100,200,500,200,50,50,500,500,50,500,50,200,50,50,500"
# Node 11 random conversational traffic
dtnsim.node[11].app.enable = true
dtnsim.node[11].app.bundlesNumber = "3,4,5,5,1,4,4,2,1,3,1,2,4,3,1,3,4,2,3,2,1,2,4,5,1,3,3,2,5,2,1,3,3,4,1,4,4,5,5,4,5,1,5,2,1,5,2,2,2,4,2,5,1,2,4,5,1,2,2,4,3,2,2,3,3,4,5,1,2,5,3,1,5,4,1,1,2,3,2,5,3,5,5,5,5,3,4,3,2,3,5,4,3,3,4,2,4,1,5,5"
dtnsim.node[11].app.start = "19,15,16,13,20,16,13,16,20,18,9,11,20,19,20,20,20,18,18,16,16,20,9,14,14,14,7,14,10,20,14,8,17,19,16,17,3,6,18,15,20,11,20,12,17,7,16,10,4,14,16,14,9,13,3,7,11,11,2,4,19,19,10,8,14,5,19,10,2,8,17,14,10,17,15,3,7,5,15,3,19,4,4,5,4,19,7,5,5,14,7,7,11,10,7,2,12,12,4,18"
dtnsim.node[11].app.destinationEid = "10,10,10,10,10,10,10,10,10,10,10,10,10,10,10,10,10,10,10,10,10,10,10,10,10,10,10,10,10,10,10,10,10,10,10,12,12,12,12,12,12,12,12,12,12,12,12,12,12,12,12,12,12,12,12,12,12,12,12,12,12,12,12,12,12,12,12,12,12,12,12,12,12,12,12,12,12,12,12,12,12,12,12,12,12,12,12,12,12,12,12,12,12,12,12,12,12,12,12,12"
dtnsim.node[11].app.size = "200,50,500,200,200,200,500,200,200,100,100,50,50,50,100,100,200,500,100,100,100,50,500,50,100,50,50,500,100,100,500,500,100,500,100,200,500,500,50,500,500,50,100,500,50,200,500,100,500,200,500,500,100,200,100,500,500,50,200,500,50,100,200,500,500,50,200,200,50,200,200,50,500,200,500,50,500,50,50,500,50,200,200,100,50,500,500,50,500,100,100,200,50,500,500,100,200,500,500,50"
# Node 12 random conversational traffic
dtnsim.node[12].app.enable = true
dtnsim.node[12].app.bundlesNumber = "3,2,1,5,5,4,1,1,5,4,1,4,5,3,4,2,5,1,5,1,2,3,5,1,2,4,2,5,3,1,1,5,3,1,4,2,1,5,1,5,3,4,5,4,4,1,4,4,4,5,5,5,1,2,4,5,4,4,5,3,5,3,5,2,2,5,3,1,2,3,5,5,4,2,1,4,4,4,3,1,5,1,1,2,1,3,4,3,3,5,1,4,3,1,4,3,5,2,5,3"
dtnsim.node[12].app.start = "19,13,16,20,14,20,20,17,11,16,20,20,13,20,15,20,9,7,20,11,13,20,12,10,16,18,20,7,12,10,10,12,5,20,13,11,8,17,15,12,14,8,14,15,19,15,5,13,13,11,16,8,14,20,17,15,9,20,18,16,13,7,3,9,15,7,19,9,2,16,17,5,13,5,5,14,3,11,20,12,17,15,9,8,13,1,19,19,2,11,4,11,17,15,1,10,15,14,16,19"
dtnsim.node[12].app.destinationEid = "11,11,11,11,11,11,11,11,11,11,11,11,11,11,11,11,11,11,11,11,11,11,11,11,11,11,11,11,11,11,11,11,11,11,11,11,11,11,11,11,11,11,11,11,11,13,13,13,13,13,13,13,13,13,13,13,13,13,13,13,13,13,13,13,13,13,13,13,13,13,13,13,13,13,13,13,13,13,13,13,13,13,13,13,13,13,13,13,13,13,13,13,13,13,13,13,13,13,13,13"
dtnsim.node[12].app.size = "200,500,200,100,100,100,100,100,500,200,100,50,200,50,50,50,100,500,50,50,100,100,100,50,200,50,200,100,50,100,200,50,500,50,500,100,50,50,500,50,500,200,50,50,200,500,200,100,200,500,50,100,200,200,500,200,100,100,200,200,200,200,50,50,200,200,500,200,500,50,100,100,50,200,100,50,500,200,500,500,100,500,500,500,200,50,50,50,100,100,500,200,100,100,50,50,500,500,100,500"
# Node 13 random conversational traffic
dtnsim.node[13].app.enable = true
dtnsim.node[13].app.bundlesNumber = "5,2,1,2,5,1,1,3,5,2,5,5,4,1,4,1,4,2,1,1,5,1,4,2,1,2,5,4,1,3,1,5,5,2,2,4,1,1,5,1,4,2,5,4,3,5,2,3,4,5,5,2,3,5,4,4,5,1,4,1,5,5,3,1,1,2,1,4,2,5,4,3,2,5,5,1,4,1,3,1,3,1,1,5,3,2,1,3,4,4,2,3,4,2,1,2,5,3,4,2"
dtnsim.node[13].app.start = "17,15,9,16,19,18,10,20,19,17,19,10,8,18,13,17,13,12,20,16,14,18,17,7,20,20,20,6,16,17,19,13,8,19,4,3,10,16,5,9,20,8,16,13,9,12,4,20,19,18,15,7,4,1,16,18,9,8,18,12,8,18,8,8,11,16,4,12,5,13,14,5,4,17,3,5,8,17,17,9,10,9,19,20,20,1,16,3,4,8,19,13,5,16,2,7,14,7,5,2"
dtnsim.node[13].app.destinationEid = "12,12,12,12,12,12,12,12,12,12,12,12,12,12,12,12,12,12,12,12,12,12,12,12,12,12,12,12,12,12,12,14,14,14,14,14,14,14,14,14,14,14,14,14,14,14,14,14,14,14,14,14,14,14,14,14,14,14,14,14,14,14,14,14,14,14,14,14,14,14,14,14,14,14,14,14,14,14,14,14,14,14,14,14,14,14,14,14,14,14,14,14,14,14,14,14,14,14,14,14"
dtnsim.node[13].app.size = "500,200,500,50,100,200,500,100,500,500,200,50,50,200,500,50,200,500,200,500,50,50,500,100,100,50,100,200,500,500,500,50,100,100,200,200,50,200,500,100,100,100,200,500,100,100,500,500,200,50,50,100,100,200,200,200,500,200,200,500,50,500,200,200,50,50,200,200,100,50,500,50,50,500,200,500,200,200,100,200,500,100,100,50,200,100,500,100,200,50,500,50,200,100,200,100,200,100,200,50"
# Node 14 random conversational traffic
dtnsim.node[14].app.enable = true
dtnsim.node[14].app.bundlesNumber = "5,3,1,3,2,1,5,3,1,3,3,3,5,5,4,5,3,4,5,3,2,4,3,4,1,2,3,1,4,1,5,3,3,3,5,1,5,2,5,5,5,2,2,4,2,3,1,4,1,3,3,1,1,5,5,1,5,3,4,4,3,4,1,1,2,1,4,5,2,5,1,4,4,3,4,4,1,4,2,4,2,4,4,3,4,4,4,4,3,3,4,3,3,5,3,1,4,2,4,4"
dtnsim.node[14].app.start = "12,14,20,9,16,16,15,20,20,19,13,18,20,13,14,16,13,16,5,10,15,19,12,13,18,13,18,18,20,20,9,20,11,15,12,10,18,16,15,9,2,6,12,3,13,15,20,3,17,2,6,2,8,9,17,7,11,17,5,5,6,7,4,18,15,10,2,1,15,5,11,11,5,14,1,1,15,9,3,9,10,19,10,5,16,9,14,6,6,5,6,17,19,13,12,14,17,14,12,10"
dtnsim.node[14].app.destinationEid = "13,13,13,13,13,13,13,13,13,13,13,13,13,13,13,13,13,13,13,13,13,13,13,13,13,13,13,13,13,13,13,13,13,13,13,15,15,15,15,15,15,15,15,15,15,15,15,15,15,15,15,15,15,15,15,15,15,15,15,15,15,15,15,15,15,15,15,15,15,15,15,15,15,15,15,15,15,15,15,15,15,15,15,15,15,15,15,15,15,15,15,15,15,15,15,15,15,15,15,15"
dtnsim.node[14].app.size = "200,200,50,500,200,200,100,50,100,50,100,500,200,100,50,50,50,50,500,50,200,50,200,100,100,50,100,50,500,500,500,50,100,200,100,100,200,50,500,100,200,50,200,100,500,200,100,100,200,500,500,200,200,500,100,500,500,500,200,100,100,100,500,500,200,50,500,50,50,50,100,500,100,100,500,50,500,100,50,500,200,200,100,500,100,500,500,100,50,500,500,200,200,50,100,500,50,200,500,200"
# Node 15 random conversational traffic
dtnsim.node[15].app.enable = true
dtnsim.node[15].app.bundlesNumber = "3,1,2,5,3,4,4,1,4,5,4,5,5,4,4,4,4,1,4,2,2,3,2,1,3,1,1,2,2,2,2,4,1,5,2,3,1,1,4,2,1,5,1,3,1,1,4,1,4,2,4,4,1,3,2,1,4,4,2,4,4,1,4,4,2,1,4,5,3,3,1,4,1,4,1,5,4,4,5,5,3,4,1,1,2,5,2,3,3,4,4,4,4,1,4,2,1,5,3,5"
dtnsim.node[15].app.start = "19,16,18,8,14,20,20,5,18,9,11,19,16,13,19,6,14,17,10,20,20,14,10,6,18,16,11,18,11,12,8,14,20,11,17,8,8,8,18,16,15,15,18,15,19,13,10,9,10,10,8,17,12,6,7,11,2,15,16,9,5,7,20,18,9,18,5,10,9,7,2,18,15,11,20,14,4,18,6,20,10,2,8,10,5,20,10,14,7,5,2,4,17,1,19,19,14,11,19,9"
dtnsim.node[15].app.destinationEid = "14,14,14,14,14,14,14,14,14,14,14,14,14,14,14,14,14,14,14,14,14,14,14,14,14,14,14,14,14,14,14,14,14,14,14,14,14,14,14,14,14,14,14,14,14,14,16,16,16,16,16,16,16,16,16,16,16,16,16,16,16,16,16,16,16,16,16,16,16,16,16,16,16,16,16,16,16,16,16,16,16,16,16,16,16,16,16,16,16,16,16,16,16,16,16,16,16,16,16,16"
dtnsim.node[15].app.size = "200,50,500,100,50,50,50,200,500,200,500,100,500,100,200,200,50,200,50,200,100,100,200,100,200,500,50,500,500,50,100,100,50,50,500,200,50,100,200,100,50,200,500,200,50,100,500,500,200,100,50,100,100,100,200,100,500,200,200,500,200,200,100,500,100,100,500,200,500,500,500,500,200,200,100,100,100,200,500,500,100,100,200,100,500,100,500,500,500,200,100,500,50,500,50,50,50,100,200,200"
# Node 16 random conversational traffic
dtnsim.node[16].app.enable = true
dtnsim.node[16].app.bundlesNumber = "2,3,2,3,1,2,5,5,2,3,4,5,2,4,5,5,5,3,5,4,1,3,1,2,2,5,4,4,1,3,5,3,3,1,1,1,5,5,2,4,1,2,4,3,1,2,1,4,4,5,2,4,1,4,5,2,1,4,3,1,3,3,3,1,3,3,3,4,5,4,1,3,5,1,3,5,1,5,2,5,1,1,4,5,5,4,1,1,5,3,4,4,4,5,4,5,5,3,5,4"
dtnsim.node[16].app.start = "17,18,12,16,11,16,12,17,18,16,11,15,19,11,16,10,19,14,19,15,16,20,11,15,15,12,18,18,13,20,14,7,7,11,6,4,8,7,14,5,6,14,13,15,15,12,16,12,7,4,18,11,6,9,5,7,18,10,6,18,4,15,4,16,6,9,17,9,12,8,5,4,5,1,2,5,16,10,3,12,1,14,18,14,20,1,12,3,14,5,19,13,17,11,14,19,9,19,5,18"
dtnsim.node[16].app.destinationEid = "15,15,15,15,15,15,15,15,15,15,15,15,15,15,15,15,15,15,15,15,15,15,15,15,15,15,15,15,15,15,17,17,17,17,17,17,17,17,17,17,17,17,17,17,17,17,17,17,17,17,17,17,17,17,17,17,17,17,17,17,17,17,17,17,17,17,17,17,17,17,17,17,17,17,17,17,17,17,17,17,17,17,17,17,17,17,17,17,17,17,17,17,17,17,17,17,17,17,17,17"
dtnsim.node[16].app.size = "100,200,200,100,50,500,500,100,50,200,100,50,200,200,100,200,50,50,500,50,50,50,500,100,50,100,50,200,100,50,50,200,50,200,100,50,500,500,100,100,100,200,100,50,100,100,100,500,500,50,200,200,100,200,500,100,200,200,500,100,50,200,200,100,100,50,500,100,50,100,500,50,100,500,50,50,500,100,100,500,100,200,500,500,50,100,500,200,50,500,500,100,500,500,50,200,100,50,500,200"
# Node 17 random conversational traffic
dtnsim.node[17].app.enable = true
dtnsim.node[17].app.bundlesNumber = "1,3,4,5,5,5,5,2,4,2,2,2,5,4,1,3,4,2,4,2,5,5,3,4,4,2,5,2,3,5,4,3,4,3,4,3,3,3,2,1,2,1,4,1,5,4,1,4,3,4,1,5,2,3,5,4,5,2,1,1,2,2,3,4,5,3,5,1,3,3,3,5,4,1,4,4,2,2,5,5,5,3,3,3,5,3,5,4,1,2,4,2,2,1,1,5,4,5,5,2"
dtnsim.node[17].app.start = "15,12,12,9,6,10,17,9,14,15,16,20,17,15,13,12,19,16,13,9,20,9,20,7,19,10,19,12,15,8,5,11,10,16,20,20,20,9,20,13,18,19,20,10,19,2,17,8,3,14,8,7,17,10,1,2,17,7,13,2,19,19,20,10,17,2,7,10,12,20,8,5,16,11,19,5,18,6,4,1,17,16,13,15,8,16,6,9,11,16,19,6,14,14,2,2,5,1,7,9"
dtnsim.node[17].app.destinationEid = "16,16,16,16,16,16,16,16,16,16,16,16,16,16,16,16,16,16,16,16,16,16,16,16,16,16,16,16,16,16,16,16,16,16,16,16,16,16,16,16,16,16,16,16,16,18,18,18,18,18,18,18,18,18,18,18,18,18,18,18,18,18,18,18,18,18,18,18,18,18,18,18,18,18,18,18,18,18,18,18,18,18,18,18,18,18,18,18,18,18,18,18,18,18,18,18,18,18,18,18"
dtnsim.node[17].app.size = "100,100,50,500,50,100,100,50,50,200,500,500,200,100,100,200,200,100,500,200,200,50,100,500,500,50,50,500,500,200,100,200,500,500,100,200,500,50,50,50,50,200,50,500,500,50,200,100,500,500,100,100,500,50,100,50,500,50,200,500,200,50,500,100,100,100,200,100,100,50,50,200,100,100,50,50,50,50,100,500,100,50,200,200,50,100,100,100,50,500,100,50,100,200,200,200,50,100,100,500"
# Node 18 random conversational traffic
dtnsim.node[18].app.enable = true
dtnsim.node[18].app.bundlesNumber = "2,2,3,5,1,5,4,1,4,1,3,1,1,3,3,3,5,2,2,3,4,2,5,2,4,4,1,2,1,3,5,4,2,2,4,3,1,5,5,5,5,1,5,5,1,4,1,4,3,5,4,1,1,3,1,4,5,2,2,1,3,1,2,4,4,4,4,3,1,3,1,2,1,4,5,3,2,5,2,3,1,3,1,4,4,5,3,5,2,1,4,2,4,1,5,4,2,2,3,5"
dtnsim.node[18].app.start = "9,16,9,20,10,9,18,13,20,20,14,6,11,20,18,20,11,19,14,9,4,20,17,18,11,12,18,20,8,19,11,11,4,20,13,6,13,16,7,18,6,20,18,11,4,10,3,13,17,5,17,19,9,14,3,2,2,16,4,20,20,15,14,16,3,10,12,4,20,12,13,7,8,10,16,20,9,3,11,16,20,13,17,7,1,16,16,15,3,14,11,10,9,6,4,1,18,10,14,16"
dtnsim.node[18].app.destinationEid = "17,17,17,17,17,17,17,17,17,17,17,17,17,17,17,17,17,17,17,17,17,17,17,17,17,17,17,17,17,17,17,17,17,19,19,19,19,19,19,19,19,19,19,19,19,19,19,19,19,19,19,19,19,19,19,19,19,19,19,19,19,19,19,19,19,19,19,19,19,19,19,19,19,19,19,19,19,19,19,19,19,19,19,19,19,19,19,19,19,19,19,19,19,19,19,19,19,19,19,19"
dtnsim.node[18].app.size = "50,100,50,500,200,50,500,100,50,100,200,50,200,50,500,200,50,200,500,500,500,100,200,200,50,100,500,500,200,500,50,500,500,200,500,200,100,500,100,200,100,100,50,50,200,500,100,100,100,50,100,200,500,500,100,100,200,500,100,50,200,100,50,50,500,200,200,200,500,200,500,100,500,200,200,50,200,100,500,50,200,100,200,500,50,200,50,50,500,100,100,200,100,100,50,100,500,500,500,200"
# Node 19 random conversational traffic
dtnsim.node[19].app.enable = true
dtnsim.node[19].app.bundlesNumber = "3,4,2,1,1,5,1,4,4,4,1,1,4,1,2,4,3,4,5,4,5,5,4,4,1,2,5,5,2,3,5,3,4,5,1,2,2,5,5,3,5,3,3,3,2,4,4,3,3,4,2,3,2,4,4,4,5,2,3,5,5,5,3,2,2,1,5,1,4,4,5,3,1,3,2,1,5,4,4,5,2,1,2,5,2,3,1,2,5,3,3,4,5,5,1,5,4,4,4,2"
dtnsim.node[19].app.start = "20,7,16,18,17,20,10,20,20,18,11,12,20,20,20,12,18,10,10,19,20,20,17,15,11,20,18,15,12,17,17,19,20,20,17,18,8,4,18,12,17,16,9,9,19,19,11,18,19,6,11,6,20,19,2,18,7,13,16,11,4,13,2,8,20,18,11,2,3,12,17,20,8,5,5,13,11,1,4,19,6,2,9,15,12,8,20,11,10,18,10,3,2,1,17,8,11,15,17,17"
dtnsim.node[19].app.destinationEid = "18,18,18,18,18,18,18,18,18,18,18,18,18,18,18,18,18,18,18,18,18,18,18,18,18,18,18,18,18,18,18,18,18,18,18,18,18,18,18,18,18,18,18,18,18,20,20,20,20,20,20,20,20,20,20,20,20,20,20,20,20,20,20,20,20,20,20,20,20,20,20,20,20,20,20,20,20,20,20,20,20,20,20,20,20,20,20,20,20,20,20,20,20,20,20,20,20,20,20,20"
dtnsim.node[19].app.size = "100,50,200,100,50,500,50,500,50,200,100,200,200,500,50,500,100,200,200,50,50,500,50,500,100,200,200,200,500,500,500,500,500,500,100,500,500,100,50,500,500,50,50,100,50,50,200,100,200,500,500,50,500,200,200,500,50,100,50,50,50,100,500,100,500,200,50,200,100,500,100,100,200,200,50,100,100,200,500,200,50,200,200,50,200,50,50,100,500,500,500,50,500,200,500,200,50,200,500,100"
# Node 20 random conversational traffic
dtnsim.node[20].app.enable = true
dtnsim.node[20].app.bundlesNumber = "3,1,4,5,4,3,3,1,3,1,1,4,1,3,1,5,4,4,4,2,4,4,5,1,2,2,3,3,4,2,4,4,3,4,3,2,2,3,1,4,2,3,3,4,2,3,5,5,1,5,5,1,5,2,2,3,3,3,5,2,1,5,2,3,5,2,4,5,3,4,5,4,1,3,2,5,4,5,3,5,4,4,4,3,3,3,4,1,5,2,2,5,5,5,5,4,4,1,4,3"
dtnsim.node[20].app.start = "20,20,14,17,10,20,8,20,12,20,18,18,15,4,20,4,11,18,19,20,9,7,7,14,12,13,20,9,16,19,10,20,13,19,11,3,18,13,17,20,8,15,4,9,20,2,6,4,5,7,2,12,17,15,5,7,13,4,19,6,14,19,10,8,9,1,4,19,8,11,14,4,16,15,7,9,9,18,18,11,19,18,16,4,18,10,12,16,19,12,18,4,4,20,3,7,11,14,2,13"
dtnsim.node[20].app.destinationEid = "19,19,19,19,19,19,19,19,19,19,19,19,19,19,19,19,19,19,19,19,19,19,19,19,19,19,19,19,19,19,19,19,19,19,19,19,19,19,19,19,21,21,21,21,21,21,21,21,21,21,21,21,21,21,21,21,21,21,21,21,21,21,21,21,21,21,21,21,21,21,21,21,21,21,21,21,21,21,21,21,21,21,21,21,21,21,21,21,21,21,21,21,21,21,21,21,21,21,21,21"
dtnsim.node[20].app.size = "200,200,100,500,50,200,100,200,200,50,50,500,50,50,500,100,200,200,200,100,200,100,100,200,100,200,50,500,200,500,100,200,200,100,200,100,200,200,500,100,500,100,200,50,200,500,50,100,100,100,50,200,50,50,500,50,100,200,100,100,100,50,200,100,200,50,50,500,500,100,50,50,500,50,500,500,200,200,500,200,500,200,200,500,50,200,50,200,200,50,100,100,200,100,50,100,100,100,100,50"
# Node 21 random conversational traffic
dtnsim.node[21].app.enable = true
dtnsim.node[21].app.bundlesNumber = "3,1,5,5,5,3,3,5,4,1,2,5,3,1,4,4,2,5,3,4,2,5,3,5,2,5,5,4,4,4,1,4,3,2,1,4,1,1,5,5,2,1,2,4,1,5,4,1,2,2,1,1,1,1,2,3,4,2,3,3,1,2,3,4,2,2,4,4,5,3,2,1,3,5,5,3,2,5,2,3,3,3,4,1,2,5,5,3,5,3,2,2,2,3,5,4,2,2,3,2"
dtnsim.node[21].app.start = "18,6,11,20,12,10,15,10,17,16,10,19,5,20,16,16,20,10,3,16,12,17,18,17,8,20,19,13,20,19,5,15,18,20,18,20,20,7,12,19,17,3,17,14,14,16,18,3,5,13,20,18,7,19,7,12,2,12,19,19,1,10,3,8,1,13,4,17,11,4,2,14,19,7,20,5,9,8,7,14,5,19,10,13,12,2,7,16,1,16,9,6,11,9,16,7,8,8,20,5"
dtnsim.node[21].app.destinationEid = "20,20,20,20,20,20,20,20,20,20,20,20,20,20,20,20,20,20,20,20,20,20,20,20,20,20,20,20,20,20,20,20,20,20,20,20,20,20,20,20,20,20,20,22,22,22,22,22,22,22,22,22,22,22,22,22,22,22,22,22,22,22,22,22,22,22,22,22,22,22,22,22,22,22,22,22,22,22,22,22,22,22,22,22,22,22,22,22,22,22,22,22,22,22,22,22,22,22,22,22"
dtnsim.node[21].app.size = "100,200,50,200,50,200,500,500,500,50,500,200,100,100,100,500,50,500,200,200,50,200,50,200,50,100,500,500,50,50,500,200,200,50,500,50,100,100,500,200,500,50,50,100,50,100,100,500,200,50,50,100,50,50,100,50,200,500,500,500,200,500,50,500,100,50,500,100,200,500,100,500,100,500,200,500,200,500,50,200,100,200,500,100,100,500,50,100,100,50,100,50,100,200,100,200,100,200,200,500"
# Node 22 random conversational traffic
dtnsim.node[22].app.enable = true
dtnsim.node[22].app.bundlesNumber = "1,5,5,3,4,4,2,5,3,3,1,1,1,5,5,1,3,5,1,2,2,4,5,2,3,1,3,4,2,5,2,2,3,1,2,2,3,1,4,1,5,1,1,4,1,1,1,1,5,2,3,5,4,3,2,2,3,4,2,5,4,4,5,1,5,2,1,3,3,2,5,3,5,5,3,4,4,4,3,1,3,1,4,4,4,1,4,2,5,2,1,2,3,2,5,3,2,2,3,1"
dtnsim.node[22].app.start = "20,20,20,19,20,17,18,20,20,20,2,9,4,10,18,18,8,7,14,9,10,16,15,12,20,3,20,11,17,18,9,20,14,19,13,15,2,18,3,19,2,18,3,19,9,17,3,20,6,4,15,4,11,3,7,10,20,4,4,13,18,6,9,5,9,11,8,16,11,10,19,16,19,8,8,3,6,14,12,3,12,20,8,7,7,19,6,1,9,1,8,2,14,2,2,14,8,1,19,14"
dtnsim.node[22].app.destinationEid = "21,21,21,21,21,21,21,21,21,21,21,21,21,21,21,21,21,21,21,21,21,21,21,21,21,21,21,21,21,21,21,21,21,23,23,23,23,23,23,23,23,23,23,23,23,23,23,23,23,23,23,23,23,23,23,23,23,23,23,23,23,23,23,23,23,23,23,23,23,23,23,23,23,23,23,23,23,23,23,23,23,23,23,23,23,23,23,23,23,23,23,23,23,23,23,23,23,23,23,23"
dtnsim.node[22].app.size = "100,500,200,50,100,50,100,200,500,200,50,50,500,500,50,100,50,100,200,50,100,100,100,500,50,50,50,100,100,100,100,200,100,500,50,100,50,500,50,200,500,500,200,500,100,500,100,100,500,100,200,200,200,50,500,200,200,500,100,100,100,200,200,200,200,200,500,100,50,200,100,50,50,500,500,200,500,500,200,50,100,200,500,100,50,50,500,200,50,200,50,100,500,500,200,100,100,50,200,100"
# Node 23 random conversational traffic
dtnsim.node[23].app.enable = true
dtnsim.node[23].app.bundlesNumber = "2,5,4,1,3,4,5,3,4,4,3,3,4,5,1,1,5,3,4,1,4,5,5,3,4,3,3,2,2,1,2,2,1,4,2,4,4,4,3,2,1,2,2,5,4,5,3,4,3,4,4,3,5,3,5,3,4,4,4,2,1,5,2,3,4,4,5,1,4,2,5,5,4,5,4,4,5,1,4,3,3,1,4,5,2,5,4,2,1,5,1,2,2,3,4,5,3,4,3,5"