[General]
network = src.dtnsim										
repeat = 1
allow-object-stealing-on-deletion = true

# Simulation end time
sim-time-limit = 84600s

# Nodes quantity (identifiers (EiDs) matches their index, EiD=0 is ignored)			
dtnsim.nodesNumber = 240
dtnsim.node[*].icon = "satellite"

# Nodes's failure rates
dtnsim.node[*].fault.enable = true
dtnsim.node[*].fault.meanTTF = 40s
dtnsim.node[*].fault.meanTTR = 10s

# Mobility
dtnsim.node[*].hasMobility = true
dtnsim.node[*].norad.satIndex = parentIndex()
dtnsim.node[*].norad.satName = "sat"
**.updateInterval = 20s
**.numOfSats = 240
**.satPerPlane = 12
**.altitude = 540
**.planes = 20
**.phaseOffset = 11

dtnsim.node[*].dtn.routing = "antop"
dtnsim.node[*].dtn.printRoutingDebug = true

# --- Random Traffic Configuration ---
# Node 1 random traffic
dtnsim.node[1].app.enable = true
dtnsim.node[1].app.bundlesNumber = "31,7,17,31,14,4,6,7,26,16,30,6,39,32,21,33,14,11,33,40,42,5,4,6,39,21,10,17,38,25,43,2,10,31,10,31,45,5,36,32,37,40,13,9,4,28,41,16,2,18,3,34,7,7,48,25,28,38,20,32,6,1,26,9,4,14,21,6,34,44,50,28,28,22,9,28,41,5,24,24,24,24,17,14,29,22,1,38,39,42,34,41,39,12,15,9,30,26,44,19"
dtnsim.node[1].app.start = "44,89,5,10,88,9,8,2,94,60,95,59,1,57,32,3,73,3,34,1,34,2,33,30,81,51,19,89,54,80,11,61,5,57,46,23,31,68,39,15,25,95,23,68,10,76,87,21,6,8,3,8,35,41,44,31,68,5,37,71,68,37,40,42,30,43,65,46,63,88,24,39,4,86,65,85,49,72,75,37,25,78,70,22,54,12,86,66,60,57,45,76,38,30,41,9,36,78,46,74"
dtnsim.node[1].app.destinationEid = "78,173,182,119,7,70,43,195,209,51,67,226,65,6,182,10,49,210,229,181,178,4,170,39,72,122,143,240,13,120,145,148,142,41,134,203,176,215,34,97,168,85,144,3,141,173,125,35,117,30,6,130,62,33,147,169,126,227,201,206,138,116,193,207,135,4,236,36,76,213,36,138,227,144,21,123,44,39,27,84,147,55,153,94,207,169,119,132,180,45,69,54,120,187,89,148,240,119,129,171"
dtnsim.node[1].app.size = "100,100,500,200,200,200,100,100,200,100,100,100,500,200,200,500,50,200,500,50,50,100,500,50,500,200,50,500,100,200,500,200,200,100,100,50,200,200,500,200,100,200,100,100,200,100,100,500,200,200,200,200,200,200,100,200,50,100,200,100,100,100,50,100,100,200,50,50,100,100,100,500,500,50,50,100,500,500,500,500,500,50,50,500,100,500,100,100,100,200,50,50,50,100,50,50,500,200,200,200"
# Node 2 random traffic
dtnsim.node[2].app.enable = true
dtnsim.node[2].app.bundlesNumber = "13,37,19,44,33,22,18,43,9,13,11,7,20,2,14,38,21,10,1,24,21,17,13,13,21,3,15,31,2,33,16,13,18,17,1,24,43,37,39,18,9,23,16,38,28,38,7,11,30,31,46,24,44,21,50,11,2,32,47,2,18,19,43,20,41,32,27,30,9,38,18,37,42,10,13,46,41,6,24,29,24,39,32,48,25,39,6,25,25,49,42,34,30,36,19,2,26,49,6,29"
dtnsim.node[2].app.start = "14,23,21,59,97,32,30,43,73,21,67,71,78,84,98,26,18,35,92,73,16,32,97,32,8,84,58,97,8,84,66,81,86,38,27,13,53,91,29,51,98,50,80,72,78,55,92,61,92,88,52,94,11,71,69,62,68,63,90,3,47,44,52,88,74,77,21,15,94,60,20,85,1,85,78,89,39,71,52,77,36,92,48,1,31,95,42,16,1,55,95,28,34,96,71,96,24,40,81,36"
dtnsim.node[2].app.destinationEid = "62,62,199,178,214,8,168,22,46,181,107,138,65,192,77,108,148,117,82,58,121,171,119,113,212,117,61,3,171,222,70,25,42,85,214,96,61,70,170,85,237,65,27,35,9,66,45,212,152,145,129,133,3,27,186,180,161,231,237,111,58,212,108,163,229,238,49,136,42,239,52,154,44,216,90,127,235,60,61,7,207,32,143,133,188,174,189,238,70,74,39,70,144,95,177,106,189,174,239,32"
dtnsim.node[2].app.size = "200,200,100,500,50,500,50,500,50,200,50,200,200,100,100,50,100,200,100,500,100,200,100,500,500,200,50,100,100,500,500,500,500,50,500,50,50,500,50,100,50,100,100,500,50,100,500,50,200,50,50,50,200,50,100,50,200,50,100,500,100,100,500,50,50,100,100,200,200,200,50,200,100,50,200,100,50,100,200,100,200,100,50,200,500,200,50,50,50,100,50,500,200,200,50,200,200,500,500,200"
# Node 3 random traffic
dtnsim.node[3].app.enable = true
dtnsim.node[3].app.bundlesNumber = "8,48,48,15,8,26,21,5,16,40,16,18,6,33,49,33,10,5,42,35,4,23,17,10,33,16,14,36,50,44,36,18,26,3,13,45,10,38,7,37,17,6,6,29,32,44,46,1,24,27,5,29,44,41,30,44,27,35,35,18,45,28,45,16,18,19,38,21,49,35,13,22,12,45,41,13,20,7,41,7,15,21,48,6,50,16,2,27,28,22,12,44,16,23,27,18,28,2,26,29"
dtnsim.node[3].app.start = "96,14,19,19,59,5,64,68,52,99,93,11,35,12,39,61,76,17,23,48,80,71,19,38,4,98,96,42,78,75,81,3,19,93,42,45,67,60,13,29,58,34,9,45,28,85,56,38,8,13,43,48,50,59,14,73,31,10,7,62,10,81,8,97,76,22,31,62,17,70,1,11,33,30,14,91,93,24,95,43,79,85,5,84,19,48,11,13,98,13,85,42,45,51,68,18,42,69,39,65"
dtnsim.node[3].app.destinationEid = "33,117,132,36,196,163,184,98,240,202,106,25,174,63,30,217,68,200,13,187,16,76,112,31,13,232,61,171,6,24,29,106,111,201,36,139,99,144,49,61,103,163,24,25,137,89,45,191,89,221,172,205,171,189,110,157,100,123,35,28,20,102,97,205,160,238,37,140,167,145,102,166,12,109,109,194,102,12,237,200,137,157,88,66,194,56,27,71,8,83,142,15,175,2,89,183,56,109,191,207"
dtnsim.node[3].app.size = "50,500,100,50,50,500,50,100,200,50,500,200,100,100,100,100,100,50,100,200,200,50,100,200,50,100,200,50,200,500,200,200,50,200,100,50,200,500,200,200,100,100,100,50,500,200,50,200,50,50,500,100,200,50,500,100,50,200,500,100,100,100,100,200,500,100,500,100,500,200,50,200,100,100,500,200,500,50,100,500,100,50,100,50,50,50,500,50,500,100,200,200,200,200,100,100,200,500,200,100"
# Node 4 random traffic
dtnsim.node[4].app.enable = true
dtnsim.node[4].app.bundlesNumber = "31,13,15,38,29,33,18,35,2,43,41,26,10,17,9,50,10,32,41,16,18,7,27,28,44,23,47,6,15,28,1,13,38,2,17,2,38,37,7,20,7,15,42,22,22,5,48,12,34,34,1,49,4,22,9,41,22,18,18,28,31,46,37,18,8,4,40,1,33,17,9,11,44,8,26,11,37,16,37,11,18,9,38,27,14,39,32,22,26,10,27,3,7,35,46,28,28,46,19,45"
dtnsim.node[4].app.start = "52,48,40,57,17,74,76,35,83,35,55,48,46,70,22,60,52,23,22,87,17,31,92,47,84,24,2,23,14,96,82,75,5,42,39,78,28,73,51,26,95,100,69,20,46,88,32,45,91,28,88,76,31,91,91,20,14,39,48,99,98,38,92,98,79,97,39,68,61,42,50,50,29,59,14,77,95,68,48,54,67,61,74,27,73,28,28,19,87,97,31,3,64,95,81,78,28,5,18,66"
dtnsim.node[4].app.destinationEid = "98,133,9,116,103,169,141,176,3,179,218,218,116,40,167,217,30,74,144,46,173,235,16,65,197,9,176,31,202,65,148,162,107,86,92,165,64,100,187,173,199,52,195,96,27,231,34,89,82,23,173,18,90,79,95,173,9,180,75,203,23,179,153,221,183,149,188,215,233,34,187,13,173,217,206,152,91,100,149,60,73,22,205,79,232,27,224,132,192,213,126,23,172,178,161,92,51,69,11,135"
dtnsim.node[4].app.size = "500,50,100,100,100,100,200,500,200,500,100,100,50,100,500,100,500,100,50,500,50,500,200,200,200,50,500,50,500,200,100,100,500,500,200,50,500,100,50,100,500,200,50,500,500,50,50,100,100,50,500,200,50,500,200,500,500,500,200,500,50,100,100,50,500,50,50,200,50,200,200,50,200,100,200,200,100,500,50,200,100,500,500,50,200,500,100,100,200,100,500,50,500,50,100,50,500,100,200,100"
# Node 5 random traffic
dtnsim.node[5].app.enable = true
dtnsim.node[5].app.bundlesNumber = "18,7,21,28,36,7,9,43,50,13,41,22,23,5,10,7,46,46,21,24,14,16,5,42,38,34,3,28,2,34,9,14,46,2,41,22,46,16,39,19,5,44,29,9,24,18,42,24,16,45,45,40,32,5,34,33,33,37,41,1,18,26,48,23,31,46,47,24,9,33,29,9,45,6,3,47,6,24,37,6,44,9,3,31,4,2,23,29,13,39,6,3,42,15,14,10,47,46,16,36"
dtnsim.node[5].app.start = "22,80,81,42,31,64,58,35,51,92,12,26,3,65,69,80,90,80,82,76,91,77,16,60,14,79,52,73,81,90,26,24,7,31,31,83,24,96,84,3,57,54,18,72,64,6,21,91,25,6,100,51,18,52,9,3,10,99,7,47,53,43,3,88,55,11,82,90,70,79,34,59,74,7,28,16,42,32,67,7,34,4,94,96,88,69,46,75,44,63,88,74,42,3,62,15,82,17,6,72"
dtnsim.node[5].app.destinationEid = "233,107,78,30,48,121,116,165,216,68,160,117,169,27,230,73,201,25,170,27,229,195,91,88,54,4,185,120,53,57,219,7,150,35,120,192,8,51,73,226,4,114,186,165,221,27,180,235,102,1,133,82,125,15,125,138,153,33,225,83,202,195,227,104,168,87,8,27,139,57,181,51,206,127,66,238,111,111,183,143,53,186,159,66,137,54,53,172,180,182,6,47,90,85,239,209,149,207,42,205"
dtnsim.node[5].app.size = "500,500,100,100,100,200,100,200,100,200,200,100,500,100,500,50,200,50,50,100,50,100,500,200,200,200,100,100,500,100,100,50,200,50,50,100,50,50,500,500,100,50,200,100,500,100,50,200,50,50,500,50,200,500,50,500,100,200,200,50,100,500,500,200,200,100,50,50,200,50,50,50,100,50,50,200,50,100,200,500,200,500,100,100,100,200,200,200,200,500,500,200,50,100,100,100,200,50,500,200"
# Node 6 random traffic
dtnsim.node[6].app.enable = true
dtnsim.node[6].app.bundlesNumber = "9,33,1,19,40,9,30,42,2,11,32,24,11,16,4,45,5,9,23,34,8,2,12,35,14,8,32,4,31,24,6,41,13,14,11,32,27,38,27,50,2,17,9,22,39,9,16,19,14,14,8,5,6,2,18,1,37,28,49,48,38,10,30,26,15,1,39,23,21,42,1,7,12,49,44,32,42,2,2,27,41,16,29,20,22,20,38,10,34,1,22,37,16,7,11,30,18,1,41,30"
dtnsim.node[6].app.start = "63,95,39,93,47,39,74,78,70,22,62,45,47,85,25,28,70,78,29,17,99,67,57,95,6,40,87,57,99,48,99,49,47,44,41,21,88,65,4,16,64,53,49,42,45,19,74,80,9,46,47,88,62,46,57,97,79,88,11,96,51,84,4,36,37,10,95,36,25,55,79,70,3,81,84,33,5,86,32,28,8,40,25,28,71,69,42,33,37,47,39,74,61,63,94,5,67,98,10,39"
dtnsim.node[6].app.destinationEid = "33,98,68,153,172,13,145,218,13,239,215,125,230,91,159,29,202,211,219,190,116,25,175,81,9,162,154,95,224,60,197,130,46,19,87,87,218,70,111,112,2,127,231,73,14,214,198,210,125,9,192,46,113,90,114,41,199,11,101,171,76,133,3,71,99,118,51,98,225,99,109,35,117,106,180,198,14,136,223,234,40,224,105,186,126,22,99,140,90,127,30,112,104,16,213,101,191,118,66,164"
dtnsim.node[6].app.size = "50,50,100,100,500,100,50,500,50,50,200,200,500,500,200,200,100,100,500,50,200,200,200,100,500,100,500,50,50,100,50,50,100,500,500,50,50,500,500,500,200,100,50,50,100,100,50,200,100,50,500,50,50,200,50,200,200,50,200,50,500,500,500,100,50,200,100,500,50,50,200,50,200,200,500,500,500,50,500,50,200,100,200,100,100,200,100,100,200,50,200,200,500,200,50,100,100,500,100,200"
# Node 7 random traffic
dtnsim.node[7].app.enable = true
dtnsim.node[7].app.bundlesNumber = "24,21,43,23,35,31,16,14,29,21,7,40,48,42,26,18,40,43,18,24,31,21,24,12,21,37,41,36,25,30,29,47,14,28,48,21,22,42,11,31,34,50,7,27,30,9,3,25,46,16,8,44,33,33,12,8,49,28,37,37,1,38,43,30,15,49,10,5,30,36,34,36,6,40,42,19,35,19,38,49,36,14,16,36,44,50,27,14,7,40,41,25,46,37,48,38,28,19,48,41"
dtnsim.node[7].app.start = "97,47,60,17,73,26,39,10,14,82,98,53,82,76,46,5,62,58,57,97,76,92,27,14,63,92,44,57,42,6,46,23,90,3,40,30,40,49,13,77,15,10,13,79,35,91,34,74,86,20,19,65,32,24,58,19,73,81,94,45,58,76,28,27,26,54,60,31,7,61,30,96,4,34,20,64,53,34,5,42,35,6,49,16,84,68,15,63,88,38,96,4,13,90,46,72,54,72,15,68"
dtnsim.node[7].app.destinationEid = "196,64,8,62,219,108,3,152,13,26,1,53,72,41,63,113,34,210,135,136,171,51,156,47,42,212,34,12,212,21,155,90,193,237,62,90,182,149,211,105,81,203,134,53,128,99,128,137,28,49,129,161,191,56,59,201,21,170,39,159,209,123,161,21,179,173,73,166,35,202,184,23,191,98,134,158,73,110,1,56,138,128,12,217,22,97,29,135,17,211,84,200,8,24,34,65,178,92,111,104"
dtnsim.node[7].app.size = "500,500,200,200,100,100,50,50,100,50,100,50,500,200,500,100,50,50,50,200,50,200,100,200,200,50,500,500,500,100,200,500,200,50,500,500,200,500,100,500,200,500,200,50,500,500,100,500,200,100,50,50,500,200,50,200,50,100,100,50,100,500,500,500,200,500,50,200,500,500,200,100,50,500,100,500,50,100,100,500,50,500,200,200,500,100,100,50,500,50,100,50,50,200,500,50,50,50,100,100"
# Node 8 random traffic
dtnsim.node[8].app.enable = true
dtnsim.node[8].app.bundlesNumber = "34,24,47,40,44,6,37,12,14,33,31,14,8,10,21,19,12,33,8,47,12,4,6,7,34,42,45,6,2,3,2,48,49,46,41,42,25,20,16,43,27,9,30,44,46,25,40,39,7,36,30,38,3,5,13,2,38,48,4,19,49,8,6,34,37,49,3,49,39,3,9,36,41,41,39,50,30,27,47,10,42,23,9,17,31,27,13,48,12,34,5,46,17,3,46,41,39,42,48,40"
dtnsim.node[8].app.start = "16,79,39,65,37,63,82,84,28,25,65,29,34,79,49,22,21,4,26,100,59,78,28,46,6,39,15,5,7,62,47,69,76,91,78,57,91,90,24,49,72,72,72,5,100,22,43,10,83,89,7,64,70,73,55,11,36,1,9,18,60,35,35,29,41,96,6,38,93,30,34,37,14,44,60,81,81,32,91,20,28,63,56,41,74,31,88,83,55,70,55,96,7,89,14,90,8,65,22,87"
dtnsim.node[8].app.destinationEid = "37,185,11,177,31,53,152,122,40,145,64,94,125,15,80,131,194,165,47,66,216,219,14,180,83,231,82,151,123,163,35,168,35,190,193,172,152,84,9,202,151,158,9,234,240,85,120,69,190,24,111,137,21,20,148,163,152,215,159,211,17,112,127,52,98,125,205,161,82,193,13,238,87,111,153,29,155,149,111,239,135,157,200,211,124,197,62,57,111,116,169,23,64,162,144,149,105,75,211,200"
dtnsim.node[8].app.size = "200,50,100,50,200,50,100,50,50,50,500,500,100,200,50,500,100,500,100,100,50,200,50,50,100,500,500,500,50,500,200,500,100,100,100,50,200,200,100,200,200,50,500,100,50,200,200,200,100,100,100,100,50,100,50,200,500,200,500,100,500,100,100,500,100,50,500,500,500,100,200,100,200,200,200,200,500,500,100,500,50,50,100,50,500,200,100,50,50,200,200,200,500,100,500,50,50,500,50,200"
# Node 9 random traffic
dtnsim.node[9].app.enable = true
dtnsim.node[9].app.bundlesNumber = "32,30,33,16,50,30,26,7,32,18,40,20,43,35,46,2,7,18,28,43,40,8,30,34,11,45,43,27,8,7,29,20,11,13,16,14,49,27,35,29,45,24,35,24,3,9,45,21,29,35,1,15,44,15,39,47,36,16,19,1,24,39,4,33,28,16,21,30,45,43,32,5,38,40,41,43,11,33,39,10,17,17,17,49,5,28,26,37,31,35,8,46,47,18,22,23,15,14,11,37"
dtnsim.node[9].app.start = "77,9,11,92,33,91,31,22,71,73,19,51,36,87,45,78,74,18,72,40,14,22,71,99,9,44,57,26,38,68,51,94,46,93,42,21,99,39,26,8,29,48,63,38,56,68,63,41,88,4,65,71,49,48,19,60,36,11,13,78,20,82,95,8,37,19,65,78,11,15,36,46,38,77,42,4,60,77,26,3,21,22,43,48,78,99,30,16,43,52,54,66,75,60,34,50,33,90,36,15"
dtnsim.node[9].app.destinationEid = "207,164,154,50,120,74,187,10,71,132,67,156,88,88,152,170,126,3,108,21,123,178,87,70,101,114,33,129,110,47,200,70,7,84,142,65,173,233,10,79,237,54,234,183,110,119,80,135,174,190,110,159,113,138,28,216,178,34,43,82,208,169,119,129,71,196,70,110,126,174,222,185,152,236,74,156,194,117,150,113,56,190,139,26,126,205,30,80,12,134,130,155,210,161,88,11,58,34,206,194"
dtnsim.node[9].app.size = "200,100,200,50,200,100,200,50,500,100,50,200,50,500,50,200,100,50,100,200,500,200,50,500,50,500,500,200,100,200,50,200,200,200,200,50,500,100,100,100,500,200,100,200,200,500,200,200,100,50,100,50,50,500,50,50,50,200,500,100,50,500,500,100,100,200,50,100,200,200,500,500,500,500,500,500,100,100,500,500,500,100,100,50,100,200,100,50,500,200,100,500,100,200,200,50,200,100,100,500"
# Node 10 random traffic
dtnsim.node[10].app.enable = true
dtnsim.node[10].app.bundlesNumber = "27,27,5,38,23,42,41,11,2,15,48,22,35,24,41,16,17,23,35,27,3,38,47,29,10,25,45,12,43,32,24,12,3,47,9,32,37,32,28,13,45,49,30,42,23,4,49,45,45,36,14,40,18,26,8,46,36,11,29,14,37,40,14,30,1,10,13,49,31,46,26,50,4,13,22,44,5,39,37,1,45,19,19,30,2,32,23,7,23,32,35,26,37,4,35,42,20,31,50,42"
dtnsim.node[10].app.start = "69,66,20,47,93,65,65,93,92,42,14,92,74,20,83,60,66,47,33,2,2,50,55,99,78,68,56,51,21,15,21,21,51,81,81,1,33,62,79,84,42,80,58,80,50,82,80,83,4,17,47,93,38,36,26,45,90,27,93,44,62,13,64,2,44,37,97,17,10,2,66,5,99,53,15,3,48,16,5,81,14,2,98,12,63,78,14,32,53,5,2,34,13,92,31,58,9,67,45,3"
dtnsim.node[10].app.destinationEid = "65,77,109,147,207,109,77,85,17,131,16,114,213,167,82,28,193,8,176,218,208,110,234,3,226,138,239,129,184,12,78,234,148,166,219,81,88,78,211,196,150,9,55,116,132,55,102,2,3,113,79,210,97,32,209,24,195,198,190,222,238,45,99,223,94,143,177,125,224,67,117,106,150,217,95,165,43,150,93,207,182,122,168,174,37,28,108,116,145,79,22,239,109,211,149,82,39,158,235,34"
dtnsim.node[10].app.size = "200,500,200,500,200,500,50,100,500,500,100,200,50,100,500,500,100,200,50,500,50,200,50,200,100,500,50,200,200,500,500,100,200,200,500,500,200,50,50,200,50,200,500,100,100,500,50,50,500,50,50,50,200,50,500,100,500,200,100,200,50,500,200,200,50,200,50,500,200,200,500,50,500,100,200,100,100,50,50,200,100,100,200,50,100,500,200,50,200,100,50,500,100,100,500,500,200,200,200,50"
# Node 11 random traffic
dtnsim.node[11].app.enable = true
dtnsim.node[11].app.bundlesNumber = "48,41,36,13,39,3,36,1,20,36,33,42,37,44,43,10,16,6,10,38,42,25,1,15,25,18,31,9,40,20,34,1,40,19,15,28,11,46,50,4,11,15,6,16,30,17,26,7,28,36,9,6,47,28,17,26,36,5,14,7,14,24,2,30,24,25,5,46,30,50,32,44,23,35,1,25,22,7,21,34,39,17,31,18,4,25,38,31,21,7,36,6,11,31,26,15,8,33,4,36"
dtnsim.node[11].app.start = "10,73,10,84,1,75,52,84,97,90,84,93,41,53,28,48,89,29,91,17,50,26,4,62,17,90,3,86,31,45,44,52,26,41,93,47,15,48,12,91,50,63,73,42,82,13,31,1,11,6,2,31,12,24,11,71,75,94,22,85,94,32,38,5,14,20,40,81,73,12,72,84,69,61,73,82,69,43,49,61,97,45,27,51,42,24,46,19,47,11,47,5,60,28,48,49,7,15,60,19"
dtnsim.node[11].app.destinationEid = "179,150,195,74,86,27,149,225,84,116,132,18,239,155,112,153,119,181,1,156,95,29,213,76,63,8,59,33,190,192,3,62,103,158,55,32,43,133,207,61,41,81,225,83,235,2,71,140,129,221,10,79,39,180,113,165,24,120,175,17,140,113,68,33,37,240,240,135,35,33,204,43,120,159,209,43,195,77,110,69,119,190,128,127,68,179,147,159,27,113,126,87,55,88,170,41,69,201,185,53"
dtnsim.node[11].app.size = "100,200,500,100,50,500,200,100,200,50,200,500,500,50,500,200,50,500,100,100,200,100,200,500,50,500,100,100,100,500,50,200,200,50,100,500,100,50,100,200,200,100,50,200,100,500,50,500,200,200,200,500,500,500,500,200,200,50,500,200,100,50,50,100,200,100,500,100,200,500,50,100,50,50,200,100,100,200,200,100,100,50,100,500,100,50,50,50,50,100,50,50,500,100,100,500,500,500,50,100"
# Node 12 random traffic
dtnsim.node[12].app.enable = true
dtnsim.node[12].app.bundlesNumber = "50,48,22,31,19,28,36,13,37,23,46,10,37,11,10,33,6,24,47,27,11,11,26,47,36,40,20,13,18,12,25,47,22,13,45,22,47,49,2,50,25,27,42,27,38,19,38,19,26,19,23,25,13,1,29,50,20,30,29,1,22,1,39,42,42,19,43,44,41,22,32,20,25,29,23,39,9,36,12,35,34,4,49,35,21,7,25,47,12,20,41,5,40,8,29,22,4,1,29,48"
dtnsim.node[12].app.start = "32,17,100,52,59,51,2,32,40,67,8,75,55,28,15,82,23,53,79,53,60,44,45,43,71,17,65,39,66,34,47,12,79,90,62,6,57,63,3,96,56,36,47,91,26,98,95,83,20,3,24,92,37,14,33,17,81,49,61,23,20,31,78,25,11,12,18,54,6,5,60,48,39,30,38,66,43,56,59,26,2,54,18,91,79,12,25,6,57,61,28,68,96,78,43,32,6,74,2,57"
dtnsim.node[12].app.destinationEid = "70,143,29,182,148,200,66,212,47,193,148,1,161,46,138,35,138,169,143,239,29,56,96,125,4,97,222,173,24,133,193,108,116,162,119,25,72,1,36,58,2,195,35,237,160,57,25,5,52,94,4,118,234,240,19,82,7,195,200,179,4,213,134,66,104,160,236,208,62,234,217,48,22,11,210,186,30,46,74,143,82,110,120,30,93,105,152,176,73,26,46,68,108,238,27,127,222,188,203,97"
dtnsim.node[12].app.size = "500,50,100,200,500,100,50,200,100,100,50,500,50,100,200,500,50,200,500,200,100,500,50,500,200,100,100,200,200,50,200,200,50,500,200,200,500,500,200,100,100,500,500,200,100,200,500,500,100,100,200,50,500,50,500,500,50,500,500,500,500,100,200,200,500,100,200,50,200,500,200,500,100,500,50,200,200,50,500,100,100,50,200,500,500,50,100,100,50,500,100,50,100,200,50,100,50,50,100,500"
# Node 13 random traffic
dtnsim.node[13].app.enable = true
dtnsim.node[13].app.bundlesNumber = "26,48,32,36,42,41,46,40,2,18,32,36,33,39,36,41,27,11,1,7,8,10,49,14,46,18,4,19,47,16,11,18,37,16,22,18,16,8,11,2,43,34,24,43,26,30,24,2,50,8,48,40,24,32,31,38,25,42,39,46,35,42,20,26,34,8,14,45,23,1,22,23,12,43,33,30,34,10,17,41,17,33,13,4,28,21,21,40,20,11,32,43,31,4,24,39,5,23,1,18"
dtnsim.node[13].app.start = "91,45,31,44,74,86,11,8,60,16,54,64,34,98,56,36,92,28,33,70,12,37,67,72,24,5,31,6,59,43,18,86,15,74,57,47,68,54,13,67,69,5,97,53,99,10,18,63,68,75,41,45,26,99,61,55,21,56,57,34,45,32,8,87,33,93,90,45,57,44,54,59,42,81,17,63,7,56,21,94,60,68,76,69,46,11,54,35,43,9,39,7,27,23,79,60,88,24,57,15"
dtnsim.node[13].app.destinationEid = "109,22,75,152,212,24,68,200,56,90,232,49,237,48,222,35,9,190,155,64,27,95,234,164,209,48,232,110,217,228,146,188,193,151,88,34,192,132,149,121,217,88,112,207,58,26,173,58,99,216,100,78,86,169,61,31,169,59,204,66,117,149,233,67,110,98,77,107,222,182,239,73,238,89,142,230,89,36,63,196,51,170,58,176,238,39,89,45,97,140,113,66,76,218,109,162,88,122,34,127"
dtnsim.node[13].app.size = "500,200,50,50,50,50,50,500,50,50,200,100,200,100,200,500,100,200,500,50,500,100,200,100,200,200,200,200,500,50,200,500,500,200,50,50,500,200,50,500,100,200,200,100,500,200,500,200,500,200,500,100,100,200,500,500,200,50,200,50,500,50,200,500,100,100,500,50,500,50,50,500,100,500,50,500,500,50,50,50,50,500,200,200,100,200,100,50,100,500,500,100,50,50,200,200,50,500,50,100"
# Node 14 random traffic
dtnsim.node[14].app.enable = true
dtnsim.node[14].app.bundlesNumber = "8,36,15,27,7,45,38,41,22,22,13,46,42,8,2,2,48,10,5,24,6,6,27,22,46,4,9,17,12,28,1,46,35,45,29,47,44,6,48,7,26,40,38,41,19,32,32,37,40,26,49,29,20,9,24,49,11,15,2,45,6,3,12,35,7,44,21,12,36,48,20,21,44,4,4,7,46,24,25,6,26,20,41,30,45,21,3,17,30,13,25,3,1,49,45,19,28,29,26,10"
dtnsim.node[14].app.start = "95,28,1,85,72,74,88,76,2,59,71,63,47,90,27,94,46,29,7,7,86,77,23,76,96,10,7,94,69,73,16,87,61,62,92,24,38,20,69,51,84,71,52,37,71,24,16,97,83,1,51,53,7,15,1,40,13,77,24,40,2,89,24,7,43,100,13,47,7,72,16,8,10,51,25,98,83,19,54,43,61,71,46,50,95,72,84,7,65,16,48,63,15,53,46,41,95,4,18,30"
dtnsim.node[14].app.destinationEid = "197,45,131,240,24,139,23,27,236,147,223,94,53,72,221,10,188,228,137,51,223,94,25,166,230,99,101,189,39,29,65,150,118,28,117,11,55,125,48,101,27,232,72,111,53,68,58,222,53,33,97,167,58,164,185,76,149,198,127,237,43,75,92,1,31,87,199,237,83,217,11,98,235,92,46,25,120,177,60,25,225,235,61,148,75,182,125,96,90,208,115,70,229,87,151,146,109,129,24,78"
dtnsim.node[14].app.size = "200,200,50,500,200,100,500,200,100,200,50,100,500,50,500,50,100,200,500,500,500,50,200,50,100,500,50,200,50,50,200,50,200,50,50,200,500,500,100,200,500,50,500,500,50,500,50,200,200,200,200,100,500,200,500,200,200,100,500,100,200,200,500,200,500,200,200,500,50,500,500,100,100,200,200,50,50,500,500,200,200,200,200,50,100,50,100,200,500,100,200,50,200,100,500,100,50,500,100,200"
# Node 15 random traffic
dtnsim.node[15].app.enable = true
dtnsim.node[15].app.bundlesNumber = "50,30,7,49,35,39,48,39,5,3,32,4,31,28,50,33,40,18,4,15,44,37,39,19,4,44,35,14,47,43,50,42,5,15,9,2,4,42,34,36,34,18,27,24,36,4,15,42,7,3,32,34,40,42,1,11,33,5,50,9,20,26,41,32,33,40,34,34,13,50,28,1,49,17,48,28,46,45,24,33,19,48,2,40,26,11,22,46,47,15,1,41,37,3,4,16,38,20,15,4"
dtnsim.node[15].app.start = "4,36,69,19,23,17,36,84,60,70,51,66,51,25,6,4,52,89,92,6,20,84,72,96,36,49,38,39,83,97,58,86,14,38,41,56,35,58,45,86,16,30,62,3,64,96,62,76,75,50,46,56,42,77,13,76,89,53,31,11,19,67,46,71,72,65,50,59,30,86,19,74,48,77,59,62,90,36,41,49,11,37,79,49,35,55,64,42,10,68,100,27,49,19,74,14,89,36,60,67"
dtnsim.node[15].app.destinationEid = "30,169,146,214,125,222,226,92,100,196,211,175,109,115,4,177,16,189,202,214,196,229,79,56,36,233,201,95,62,167,126,54,86,68,148,167,11,3,84,86,32,150,130,38,68,204,163,198,240,223,184,126,78,150,79,143,224,67,18,120,170,49,135,46,128,240,32,226,177,114,203,151,104,147,38,35,121,182,227,66,16,229,232,74,91,123,7,63,112,76,229,205,32,121,219,56,3,229,235,16"
dtnsim.node[15].app.size = "100,50,500,200,100,200,50,200,100,50,50,500,50,100,200,200,500,100,100,200,50,100,500,100,200,100,500,100,500,100,200,100,500,50,200,100,200,500,500,200,50,50,200,500,500,50,500,200,500,50,50,500,500,500,50,200,200,200,200,500,100,100,50,100,50,500,500,100,100,500,100,500,50,200,200,50,100,50,100,50,500,500,100,200,200,50,50,50,500,50,500,50,200,100,200,200,500,100,500,500"
# Node 16 random traffic
dtnsim.node[16].app.enable = true
dtnsim.node[16].app.bundlesNumber = "11,22,14,9,48,33,20,47,42,33,29,15,37,41,13,5,21,14,5,45,50,33,30,3,49,6,30,47,3,10,47,1,8,28,2,41,33,48,12,6,5,46,9,24,43,20,20,11,9,22,40,26,15,41,36,17,8,26,45,30,28,37,40,46,6,10,37,5,23,2,40,23,27,40,46,28,33,14,11,3,18,39,34,9,7,40,8,47,7,2,38,7,41,3,12,14,50,8,33,48"
dtnsim.node[16].app.start = "97,46,71,80,1,12,87,24,44,17,58,52,57,13,23,46,25,41,3,51,20,47,60,29,79,45,4,21,5,55,16,83,58,71,11,81,13,47,67,49,31,68,84,57,29,65,33,28,48,52,32,63,3,56,99,59,34,7,27,81,22,86,79,12,29,81,66,64,41,51,67,65,58,6,24,37,30,47,62,85,6,23,86,86,77,21,67,64,95,60,25,15,86,83,66,18,56,35,95,27"
dtnsim.node[16].app.destinationEid = "128,118,136,72,101,197,183,61,79,24,31,210,149,155,209,96,179,182,193,15,115,177,193,21,162,21,97,208,156,144,135,15,162,202,190,225,153,124,174,39,158,4,49,35,172,236,2,55,187,223,13,36,151,68,182,59,212,170,65,151,166,168,201,166,140,110,28,33,224,206,165,181,187,178,48,136,216,15,212,206,91,168,78,125,185,236,197,109,184,194,195,67,55,214,167,97,65,70,14,71"
dtnsim.node[16].app.size = "100,500,200,200,50,100,200,500,100,500,50,500,500,500,500,500,100,500,200,200,100,500,50,200,50,200,200,500,500,500,50,50,500,100,200,100,100,200,500,200,50,100,500,100,50,200,100,50,100,100,100,50,50,50,50,500,50,200,50,200,100,50,500,500,200,500,500,200,100,200,200,100,100,500,200,500,500,100,100,200,50,500,100,100,500,100,500,200,50,100,500,100,200,100,50,50,50,100,200,50"
# Node 17 random traffic
dtnsim.node[17].app.enable = true
dtnsim.node[17].app.bundlesNumber = "22,9,6,13,3,5,8,18,2,37,26,46,45,25,32,5,47,42,39,38,17,32,10,22,10,17,49,30,50,31,48,30,49,33,4,13,22,39,21,6,22,48,17,36,33,37,43,30,26,21,37,36,29,15,28,26,40,15,12,18,46,39,6,9,4,19,48,2,31,39,43,28,24,31,37,50,42,16,21,14,26,27,34,24,39,13,49,45,40,48,47,44,19,47,12,5,47,36,18,23"
dtnsim.node[17].app.start = "14,46,17,54,67,13,37,1,73,33,65,15,47,72,91,34,74,11,45,2,85,20,70,33,8,14,77,85,10,27,7,55,82,38,2,46,56,16,84,20,93,94,72,28,63,3,73,37,76,59,58,91,21,14,11,34,6,75,73,48,18,42,57,10,22,92,64,86,84,26,93,26,39,50,22,64,38,25,78,69,35,33,26,89,69,6,2,53,83,69,43,54,34,30,50,50,5,30,16,15"
dtnsim.node[17].app.destinationEid = "41,135,168,66,160,135,212,194,236,180,220,36,144,186,100,73,30,39,239,193,228,2,100,111,139,22,46,113,13,225,224,104,106,147,5,240,57,137,235,159,195,161,110,186,45,108,35,166,110,4,240,219,79,89,213,2,88,130,22,152,159,125,235,187,210,100,226,157,230,188,105,30,126,52,225,113,173,88,217,196,76,25,163,98,190,174,74,189,29,198,219,37,158,87,83,175,93,123,119,45"
dtnsim.node[17].app.size = "500,50,200,500,200,50,200,100,50,500,50,50,50,200,500,200,100,50,50,500,200,200,500,500,200,100,100,500,50,200,500,200,50,200,200,500,100,200,500,200,50,500,100,200,50,500,100,500,200,100,50,200,200,50,500,200,50,200,500,200,100,100,500,500,500,100,200,200,200,500,500,100,500,100,100,500,200,200,50,50,50,200,100,200,50,50,500,50,100,100,200,200,50,100,100,200,100,500,50,50"
# Node 18 random traffic
dtnsim.node[18].app.enable = true
dtnsim.node[18].app.bundlesNumber = "21,37,14,1,23,9,47,49,16,8,44,39,27,38,44,32,31,47,38,9,25,16,17,31,9,6,43,34,35,9,45,26,1,39,41,20,21,16,31,38,34,18,27,35,5,22,25,39,1,24,35,19,6,33,27,13,17,31,1,24,8,28,48,20,10,50,31,32,25,15,12,11,16,26,2,34,41,2,24,44,42,28,39,2,42,46,44,11,38,11,47,15,48,44,2,29,9,24,12,6"
dtnsim.node[18].app.start = "9,68,86,2,35,3,29,9,47,26,48,61,59,24,22,75,75,47,17,40,92,47,46,19,76,40,100,19,66,92,34,13,39,31,85,41,79,61,89,99,46,45,3,34,41,23,98,70,16,27,93,60,74,80,61,90,87,92,90,75,34,45,91,57,3,66,53,94,28,81,58,99,74,78,32,41,15,62,69,20,100,66,9,36,47,6,21,44,83,41,24,20,32,7,12,46,93,75,4,72"
dtnsim.node[18].app.destinationEid = "102,140,183,170,23,174,85,71,197,144,136,187,42,206,40,72,17,130,156,84,26,234,3,214,147,22,107,46,113,116,237,27,185,149,39,44,120,36,143,155,168,50,165,220,204,167,12,183,159,6,43,22,186,195,233,184,178,227,74,59,123,31,212,50,105,172,11,183,153,97,76,123,127,135,191,115,163,135,92,224,46,101,228,213,134,131,44,168,196,40,197,134,121,155,107,27,139,2,150,20"
dtnsim.node[18].app.size = "100,50,50,50,500,100,100,500,500,200,200,200,500,500,500,200,100,50,100,200,200,200,200,500,50,100,500,50,200,200,100,100,50,100,200,200,200,500,100,50,50,500,200,100,500,50,500,100,200,100,500,500,100,50,100,50,200,500,100,200,50,500,50,200,200,500,500,500,200,200,200,200,200,200,200,100,200,500,50,50,500,50,100,50,200,500,500,200,50,500,100,100,500,100,200,500,100,500,100,200"
# Node 19 random traffic
dtnsim.node[19].app.enable = true
dtnsim.node[19].app.bundlesNumber = "32,9,47,14,30,11,26,15,10,25,37,31,48,21,6,12,24,20,32,25,39,29,12,43,43,14,18,34,30,22,41,25,10,44,6,19,15,24,23,12,36,24,48,9,47,22,41,21,37,9,40,15,4,13,13,45,39,8,49,4,48,26,20,18,40,10,40,5,5,20,45,24,22,23,43,1,10,48,6,17,44,9,17,17,30,49,25,6,43,22,42,36,37,50,44,18,41,35,45,8"
dtnsim.node[19].app.start = "11,87,84,16,57,10,48,5,47,35,44,61,91,85,95,54,51,42,43,7,43,18,82,71,28,90,82,9,19,5,70,41,30,27,24,79,94,66,65,13,54,38,47,14,75,20,55,39,38,89,27,81,47,81,48,86,96,48,86,21,45,96,25,79,5,93,98,60,48,62,57,13,66,21,11,59,45,42,83,50,73,21,86,13,34,93,72,19,42,71,8,47,26,99,82,60,53,65,81,12"
dtnsim.node[19].app.destinationEid = "215,56,140,34,233,219,26,51,151,12,218,238,8,94,69,237,99,212,118,34,38,132,182,13,178,222,123,96,73,201,209,170,148,54,240,22,103,83,51,175,50,49,107,99,171,210,27,7,180,143,116,22,10,2,85,89,152,174,159,104,56,164,177,232,66,89,131,229,137,77,157,201,156,121,78,173,117,215,237,39,1,173,148,189,30,230,145,29,123,134,133,118,127,133,172,211,128,208,240,44"
dtnsim.node[19].app.size = "200,100,500,100,100,200,200,50,50,200,50,50,100,200,100,50,200,50,200,200,100,500,200,500,100,200,200,100,100,500,100,50,100,100,50,50,50,50,500,500,200,100,50,200,500,50,500,50,200,200,100,100,100,200,100,50,200,50,500,100,200,500,200,50,50,500,500,50,500,100,200,200,500,100,200,100,500,50,200,200,200,500,50,100,50,200,50,100,50,50,50,50,100,50,500,100,50,200,100,100"
# Node 20 random traffic
dtnsim.node[20].app.enable = true
dtnsim.node[20].app.bundlesNumber = "14,4,35,6,16,4,34,28,49,6,17,7,15,49,15,30,4,33,46,15,48,35,25,33,13,12,34,8,6,46,38,38,6,17,27,10,4,43,41,34,27,27,29,22,27,14,18,15,16,42,20,24,44,34,31,15,16,7,20,29,12,18,12,16,34,14,16,11,1,23,29,13,31,18,8,15,30,25,30,42,28,42,6,13,8,7,11,22,43,19,15,30,34,43,39,37,7,20,48,19"
dtnsim.node[20].app.start = "67,61,59,43,27,71,48,63,72,71,4,10,45,14,60,34,22,7,46,58,64,34,11,90,43,88,52,86,87,84,77,82,53,36,93,1,18,98,35,58,15,30,78,24,21,81,44,92,53,31,77,93,67,100,86,6,23,6,95,50,72,19,69,66,77,5,74,39,98,1,45,22,39,65,55,26,18,93,15,36,14,6,15,19,62,32,1,34,96,63,83,70,69,40,17,20,85,47,67,12"