[General]
network = src.dtnsim										
repeat = 1
allow-object-stealing-on-deletion = true

# Simulation end time
sim-time-limit = 84600s

# Nodes quantity (identifiers (EiDs) matches their index, EiD=0 is ignored)			
dtnsim.nodesNumber = 360
dtnsim.node[*].icon = "satellite"

# Nodes's failure rates
dtnsim.node[*].fault.enable = true
dtnsim.node[*].fault.meanTTF = 40s
dtnsim.node[*].fault.meanTTR = 10s

# Mobility
dtnsim.node[*].hasMobility = true
dtnsim.node[*].norad.satIndex = parentIndex()
dtnsim.node[*].norad.satName = "sat"
**.updateInterval = 20s
**.numOfSats = 360
**.satPerPlane = 18
**.altitude = 540
**.planes = 20
**.phaseOffset = 11

dtnsim.node[*].dtn.routing = "antop"
dtnsim.node[*].dtn.printRoutingDebug = true

# --- Random Traffic Configuration ---
# Node 1 random traffic
dtnsim.node[1].app.enable = true
dtnsim.node[1].app.bundlesNumber = "27,28,34,50,42,40,19,49,50,43,45,10,38,4,22,16,24,47,2,49,3,9,38,37,22,25,35,37,39,38,12,29,35,38,43,40,37,45,44,19,14,3,17,43,23,16,50,30,10,21,23,30,34,43,38,12,6,40,44,45,22,50,2,21,3,48,21,9,43,13,42,30,50,25,43,16,36,18,33,8,38,23,12,2,5,5,20,3,9,28,42,3,4,32,2,43,37,35,4,6"
dtnsim.node[1].app.start = "74,25,38,48,91,31,21,10,12,38,79,8,45,92,71,74,61,20,85,27,60,42,23,15,38,92,91,42,22,26,76,62,79,2,49,79,35,30,93,49,89,83,76,37,71,21,47,36,74,77,30,16,58,42,99,30,96,74,57,69,72,17,35,21,45,26,1,11,32,40,67,61,30,44,34,10,87,58,22,63,52,19,39,46,100,66,1,85,21,7,4,97,23,77,50,92,9,6,47,94"
dtnsim.node[1].app.destinationEid = "55,27,317,84,352,316,335,130,57,217,68,29,335,73,15,201,112,247,293,17,321,145,251,249,102,149,299,322,277,80,194,348,73,312,42,209,39,334,140,135,332,167,225,287,6,146,157,149,303,170,102,311,105,8,293,336,209,71,272,250,162,205,2,23,324,184,179,120,96,170,77,136,256,59,297,16,186,219,231,329,26,45,217,32,352,323,69,90,97,35,310,58,183,245,113,39,85,93,159,351"
dtnsim.node[1].app.size = "50,500,500,500,500,100,200,200,100,50,50,500,500,500,200,500,200,50,500,100,500,100,500,100,50,100,500,100,100,100,200,200,500,500,50,100,200,100,100,200,50,200,200,100,200,200,100,50,100,50,100,500,200,500,500,50,100,500,200,100,100,100,100,50,500,200,500,500,50,50,200,200,50,200,100,200,50,500,50,200,500,50,200,200,100,200,500,200,200,500,50,50,100,100,200,100,500,500,100,50"
# Node 2 random traffic
dtnsim.node[2].app.enable = true
dtnsim.node[2].app.bundlesNumber = "4,13,17,37,28,22,8,17,30,27,41,38,20,30,22,19,6,35,35,4,45,37,27,42,47,36,8,40,4,14,29,22,13,26,27,11,23,21,29,48,42,36,9,40,12,19,50,36,35,15,13,9,14,26,18,23,35,17,15,27,43,46,17,39,25,32,22,13,23,9,7,34,27,25,29,42,2,32,25,44,27,28,48,25,48,22,34,31,19,6,11,33,38,13,2,45,13,26,4,14"
dtnsim.node[2].app.start = "48,54,33,62,66,54,59,100,22,87,54,73,14,98,31,59,84,3,45,73,5,15,87,71,98,23,50,74,61,21,64,97,46,33,54,31,67,63,24,47,64,70,58,75,9,54,46,54,34,71,19,80,55,99,21,58,33,44,84,78,43,97,10,85,43,42,74,69,38,60,71,4,40,27,2,95,86,22,42,73,100,58,76,94,65,21,12,11,84,61,84,69,75,8,13,69,18,93,3,17"
dtnsim.node[2].app.destinationEid = "333,277,263,26,358,124,92,133,203,353,38,252,127,92,194,317,108,268,218,26,280,236,132,251,118,76,177,266,120,235,28,74,315,310,65,127,85,53,303,71,356,7,97,96,272,223,103,245,10,46,305,168,159,221,290,289,223,267,153,294,70,230,187,306,147,93,58,53,347,85,120,98,247,185,109,9,280,263,101,99,344,248,175,285,314,344,246,19,236,360,322,290,12,64,77,189,172,23,172,144"
dtnsim.node[2].app.size = "100,50,100,500,500,100,500,50,500,100,50,50,200,50,100,100,50,100,50,100,200,200,50,50,50,200,100,500,500,100,200,500,200,100,200,200,200,100,50,500,500,100,100,50,100,200,50,500,50,100,500,50,500,50,50,100,500,500,100,200,100,50,500,200,500,100,200,50,500,100,50,200,50,200,50,50,500,200,200,500,200,50,100,100,200,200,500,500,500,200,200,500,200,200,500,50,200,50,200,50"
# Node 3 random traffic
dtnsim.node[3].app.enable = true
dtnsim.node[3].app.bundlesNumber = "39,42,3,32,17,6,36,16,28,5,4,39,46,17,23,32,35,18,9,34,33,7,4,32,12,24,2,38,24,5,17,17,50,2,43,28,27,4,15,22,25,32,19,30,32,25,24,40,38,34,15,31,1,34,49,32,24,33,9,46,3,8,1,22,3,50,6,22,20,37,16,35,44,19,47,36,15,12,11,16,9,3,3,2,37,28,7,38,43,29,5,28,8,23,22,37,17,49,5,37"
dtnsim.node[3].app.start = "35,75,11,3,22,73,57,42,74,2,32,82,75,69,68,24,35,96,46,26,64,74,64,66,4,57,2,32,89,100,92,31,91,20,78,35,78,71,10,25,68,67,36,74,76,68,78,2,1,98,85,63,11,37,45,29,80,63,82,29,14,19,48,66,86,84,53,14,56,87,17,87,91,75,70,13,74,52,66,61,53,10,11,82,74,17,48,39,90,36,55,8,35,1,47,8,63,4,93,22"
dtnsim.node[3].app.destinationEid = "283,82,246,143,158,140,224,136,227,43,214,134,213,351,332,207,24,39,53,327,152,125,287,313,209,343,217,249,225,251,275,229,35,282,259,206,312,305,163,335,355,33,175,165,210,235,311,327,243,106,63,340,195,316,310,270,26,165,18,328,212,272,277,55,220,284,125,137,307,300,206,93,180,109,290,335,101,272,191,223,339,56,4,31,100,106,5,338,10,76,219,183,46,298,215,266,44,68,294,141"
dtnsim.node[3].app.size = "100,50,500,50,100,500,200,50,100,500,50,50,100,100,500,100,50,100,200,50,100,200,100,100,200,100,100,200,50,50,500,50,50,50,100,200,50,500,200,50,50,50,200,50,100,50,200,50,500,200,500,100,200,50,500,50,50,100,200,50,500,200,100,500,50,200,100,50,100,500,200,50,200,50,500,100,50,500,100,500,50,200,50,50,100,100,500,50,500,500,500,100,50,200,500,500,50,100,200,200"
# Node 4 random traffic
dtnsim.node[4].app.enable = true
dtnsim.node[4].app.bundlesNumber = "36,17,37,28,39,14,27,38,8,41,3,17,20,12,24,50,21,10,43,15,20,3,18,18,49,49,6,22,25,43,23,23,32,10,42,12,5,29,50,9,26,35,28,46,25,3,3,22,31,35,46,35,8,11,17,20,43,31,34,31,40,28,49,44,11,13,19,18,10,38,1,35,41,45,35,11,33,1,35,33,20,46,35,26,11,39,15,29,28,21,41,14,18,50,50,45,48,15,21,10"
dtnsim.node[4].app.start = "57,95,22,20,15,54,58,85,45,99,72,28,57,34,29,37,63,25,3,69,16,96,55,54,2,37,89,55,36,51,39,97,79,30,93,90,69,22,40,3,28,55,38,40,95,68,1,27,51,83,97,13,100,41,79,42,44,84,79,31,79,19,21,41,84,3,44,52,57,64,17,63,74,55,87,60,65,55,82,9,61,2,85,77,93,23,53,38,40,75,14,65,90,42,35,16,18,37,43,4"
dtnsim.node[4].app.destinationEid = "27,358,158,190,353,230,295,41,117,110,46,258,112,254,293,264,247,97,325,282,276,314,356,6,269,333,282,336,53,16,164,211,359,153,18,333,71,191,165,60,17,74,355,119,158,253,171,240,265,260,200,63,330,189,247,339,332,229,121,119,356,300,309,239,97,352,203,50,337,75,227,198,112,159,116,82,69,42,280,331,220,110,63,256,135,193,89,344,97,349,233,212,86,136,22,207,336,187,41,191"
dtnsim.node[4].app.size = "200,500,500,50,500,100,200,200,200,200,100,200,500,50,50,100,100,100,500,200,500,50,500,500,200,500,100,200,100,200,500,500,100,200,500,100,500,100,500,50,50,100,50,500,50,200,100,500,100,50,50,50,100,200,50,50,200,500,500,500,100,100,100,50,50,500,100,500,100,100,500,500,500,50,100,100,500,200,50,50,50,100,500,100,200,100,100,500,500,50,500,500,500,100,200,100,100,100,50,50"
# Node 5 random traffic
dtnsim.node[5].app.enable = true
dtnsim.node[5].app.bundlesNumber = "6,29,3,49,44,32,26,8,46,44,25,16,40,41,18,28,45,8,6,26,30,38,27,42,48,21,43,7,45,42,28,48,1,35,16,4,27,10,26,32,36,41,48,28,14,34,39,4,19,44,48,27,20,21,42,28,7,5,30,33,2,24,4,21,23,18,32,44,21,38,2,7,12,18,15,14,17,35,19,34,5,6,2,50,1,25,27,41,2,40,6,18,33,31,8,17,13,45,34,30"
dtnsim.node[5].app.start = "11,61,85,53,3,43,54,58,42,23,91,85,81,24,5,48,3,22,22,31,40,89,90,95,7,96,84,98,50,69,39,82,63,21,1,43,64,69,30,72,55,63,68,96,24,46,50,75,32,49,60,26,25,96,45,6,87,6,28,89,88,17,45,86,53,93,56,40,10,28,22,53,74,88,27,100,48,87,10,70,81,79,41,64,98,3,14,7,20,26,64,20,2,71,87,67,4,73,22,74"
dtnsim.node[5].app.destinationEid = "219,321,318,155,140,270,133,222,194,271,135,162,234,51,70,347,171,178,18,120,290,53,125,349,324,283,31,324,297,333,7,228,227,288,256,244,86,319,284,43,71,255,250,285,256,209,264,349,104,125,224,219,316,125,312,59,342,287,343,317,62,128,221,8,103,114,240,114,25,131,199,97,100,184,39,96,270,181,352,12,240,109,70,260,114,70,116,20,279,140,297,329,30,352,284,219,224,124,181,168"
dtnsim.node[5].app.size = "500,50,200,500,500,200,200,500,500,100,50,100,200,500,500,200,50,200,500,500,100,100,200,50,50,50,100,500,50,500,100,50,100,200,500,200,500,50,50,50,100,50,200,50,500,50,500,100,100,50,500,100,100,200,500,50,50,50,100,100,100,200,200,50,500,100,200,50,500,200,500,200,200,200,100,500,50,100,100,500,500,200,500,50,500,100,100,50,50,500,200,100,50,200,50,100,500,200,50,500"
# Node 6 random traffic
dtnsim.node[6].app.enable = true
dtnsim.node[6].app.bundlesNumber = "4,30,18,46,49,45,1,16,15,39,21,15,33,8,15,43,22,9,45,32,17,49,34,16,1,19,32,37,1,26,39,4,33,33,25,1,9,2,1,23,3,15,44,4,46,18,49,10,28,35,38,1,4,15,34,41,18,32,3,28,2,14,33,15,34,15,10,19,50,44,1,12,8,36,21,31,20,28,35,47,5,32,44,29,44,16,47,49,28,14,43,3,26,19,20,20,2,46,37,26"
dtnsim.node[6].app.start = "4,62,40,16,74,20,48,94,84,82,8,50,86,40,41,70,35,33,42,7,51,42,96,44,50,100,86,17,26,86,7,25,89,62,32,64,88,84,41,75,73,23,92,63,93,61,33,22,79,95,75,34,97,9,48,73,28,95,94,13,92,64,86,53,81,27,18,6,44,52,95,39,98,27,78,47,74,34,9,75,24,88,95,62,9,59,85,33,40,30,9,89,26,57,56,18,29,88,78,90"
dtnsim.node[6].app.destinationEid = "2,317,65,287,274,228,138,299,109,304,55,214,68,110,313,301,84,1,347,128,108,132,325,93,353,197,12,233,275,285,272,171,85,316,7,291,205,109,171,308,39,259,133,358,356,209,310,315,31,104,59,184,294,23,119,293,36,222,294,69,318,283,191,92,235,16,119,84,337,311,273,227,282,323,40,121,264,4,229,352,61,285,76,151,176,4,87,12,59,104,232,179,56,45,229,120,233,288,190,312"
dtnsim.node[6].app.size = "200,100,100,500,200,50,50,50,50,500,100,100,500,50,100,200,50,200,50,200,50,50,500,500,500,100,100,100,100,50,500,50,100,500,50,200,200,50,50,500,100,500,50,100,100,500,200,100,200,200,200,200,500,200,200,100,200,200,500,500,200,500,50,200,200,500,500,50,500,200,100,100,500,50,100,100,200,50,200,100,500,200,200,100,100,200,50,100,200,50,100,200,200,50,500,200,500,50,100,100"
# Node 7 random traffic
dtnsim.node[7].app.enable = true
dtnsim.node[7].app.bundlesNumber = "16,33,10,47,48,15,31,43,15,29,27,4,40,21,40,41,27,30,27,48,27,1,20,40,49,46,8,45,38,23,22,17,33,39,47,25,16,32,11,23,37,8,23,17,12,46,9,44,23,11,45,13,11,45,43,23,27,37,21,6,11,48,31,49,42,15,31,35,18,8,8,18,28,10,23,29,9,32,31,38,9,29,30,13,29,13,6,12,4,2,23,42,7,8,24,24,49,36,1,14"
dtnsim.node[7].app.start = "74,64,30,75,9,48,50,54,29,16,28,30,17,72,73,3,63,19,94,54,54,26,61,21,41,12,65,78,54,84,84,15,8,61,3,10,68,48,55,7,49,60,20,98,38,25,89,70,35,15,10,89,30,14,96,10,3,85,43,62,95,34,65,27,69,61,5,68,11,25,6,7,98,89,70,31,95,98,78,83,44,73,56,69,66,100,16,90,50,92,14,50,79,94,37,99,47,33,33,10"
dtnsim.node[7].app.destinationEid = "311,13,44,285,131,257,101,150,151,80,169,260,262,22,20,348,126,79,113,252,283,139,230,103,157,334,360,13,113,247,252,166,232,110,172,204,96,93,10,35,118,299,228,167,94,98,281,86,69,146,72,38,310,277,88,75,182,133,217,208,76,283,344,314,252,114,315,107,326,77,347,358,261,62,166,291,308,155,237,286,203,230,200,51,137,138,187,121,75,44,347,358,271,117,332,342,239,233,149,323"
dtnsim.node[7].app.size = "100,200,100,500,500,500,200,50,100,500,200,500,500,100,200,50,50,50,50,500,100,100,200,200,100,500,200,200,500,100,100,500,500,100,200,500,200,100,100,50,200,200,200,100,200,100,200,50,200,50,100,100,50,500,50,50,500,50,500,500,100,50,200,200,500,100,50,200,50,100,100,50,50,200,500,200,100,200,200,500,500,500,50,100,100,50,50,100,50,500,200,500,200,500,200,100,50,100,500,50"
# Node 8 random traffic
dtnsim.node[8].app.enable = true
dtnsim.node[8].app.bundlesNumber = "33,47,17,20,50,41,35,35,19,42,49,40,22,42,43,19,23,44,19,13,6,17,4,38,38,2,3,7,25,1,40,15,17,37,28,33,32,14,30,11,12,43,19,36,27,1,15,8,45,12,18,7,10,30,40,14,2,37,20,4,18,14,9,11,3,5,30,14,50,40,15,8,18,22,29,30,16,17,4,26,46,48,27,18,31,32,42,20,45,2,36,35,47,50,43,42,49,41,33,17"
dtnsim.node[8].app.start = "43,23,39,41,45,9,97,67,99,65,91,64,13,42,75,96,34,85,44,24,38,96,13,70,4,23,57,55,9,88,15,76,12,84,64,42,42,33,96,47,52,62,25,78,5,7,96,41,34,71,95,44,65,88,44,86,7,3,76,37,5,14,39,56,93,1,83,31,65,38,8,51,97,90,17,93,26,75,80,28,82,33,31,60,54,89,11,15,71,84,24,94,89,1,58,82,78,98,39,1"
dtnsim.node[8].app.destinationEid = "287,143,165,283,244,270,124,133,304,130,111,191,12,81,346,20,188,84,95,120,93,284,297,280,219,75,86,269,231,345,69,233,60,120,164,302,101,233,166,155,240,23,267,204,137,196,108,143,159,156,331,123,161,150,105,355,314,341,231,163,328,153,273,357,41,263,132,247,267,160,109,193,233,50,248,218,162,328,31,179,226,137,209,127,255,71,216,41,302,317,65,205,212,251,215,171,25,344,334,69"
dtnsim.node[8].app.size = "500,50,50,50,500,50,50,100,200,500,500,200,100,100,500,500,500,200,50,50,50,200,200,50,100,100,200,100,200,200,500,200,500,50,100,500,100,200,500,100,50,50,50,500,100,100,500,200,100,200,500,500,100,500,200,500,500,500,200,50,500,50,200,50,50,50,100,50,500,200,50,500,200,500,100,200,100,50,500,500,50,50,50,50,200,100,500,500,500,200,200,200,100,200,200,50,100,200,500,500"
# Node 9 random traffic
dtnsim.node[9].app.enable = true
dtnsim.node[9].app.bundlesNumber = "4,19,47,28,9,24,41,2,45,41,2,41,29,29,12,16,34,48,34,38,22,26,46,48,42,9,1,13,9,13,46,46,37,9,41,30,47,34,28,19,40,32,21,27,20,1,24,19,43,15,13,14,33,30,23,16,25,16,34,23,34,13,33,19,25,21,50,12,37,23,6,30,5,1,15,2,14,27,27,19,24,21,30,27,32,10,38,44,49,30,40,23,45,32,23,24,7,34,43,37"
dtnsim.node[9].app.start = "85,53,6,49,52,43,92,41,2,88,80,91,67,67,64,73,31,56,57,40,10,22,80,74,43,22,80,86,70,70,7,18,90,18,100,70,55,20,32,51,4,81,38,94,23,47,97,27,3,46,73,82,25,40,78,4,9,12,54,10,72,8,62,81,89,100,53,21,13,79,83,62,54,62,16,45,82,46,2,63,27,46,33,93,60,72,86,70,99,43,32,18,9,45,9,3,50,89,25,41"
dtnsim.node[9].app.destinationEid = "322,202,93,104,212,216,128,108,126,179,154,104,187,27,131,206,173,290,264,196,77,101,149,198,333,107,72,341,259,25,19,254,77,252,224,100,132,170,172,276,107,50,164,193,4,182,335,138,292,10,127,106,238,240,150,62,159,204,137,234,85,86,115,340,205,197,62,101,211,87,288,340,56,267,181,245,115,123,226,289,123,256,51,2,73,288,149,207,287,331,92,197,61,174,145,184,324,329,264,335"
dtnsim.node[9].app.size = "200,100,50,100,200,200,200,500,500,100,50,100,100,200,200,100,50,200,500,200,200,50,50,200,200,500,500,100,50,100,100,500,200,100,200,500,100,500,200,50,500,100,100,50,200,500,500,100,50,100,50,200,200,500,50,100,500,100,500,200,100,100,50,100,50,200,50,50,100,50,500,50,50,100,50,100,200,50,50,100,500,100,200,50,200,500,200,500,500,200,50,100,200,200,200,100,200,50,500,50"
# Node 10 random traffic
dtnsim.node[10].app.enable = true
dtnsim.node[10].app.bundlesNumber = "1,40,16,41,48,39,12,26,27,26,21,36,5,24,47,27,24,2,10,43,41,25,50,19,50,28,16,8,17,45,42,26,39,26,34,40,20,47,24,37,6,7,48,1,48,29,10,39,13,21,22,14,40,49,18,11,14,42,37,10,21,3,35,20,24,11,44,19,28,33,4,44,43,29,9,48,2,33,7,9,49,19,5,35,38,38,25,14,13,49,8,13,43,42,5,7,11,11,40,4"
dtnsim.node[10].app.start = "8,44,62,65,30,100,26,51,59,68,3,81,40,70,78,96,89,15,76,80,76,90,5,62,20,76,21,45,37,13,4,51,29,90,81,94,99,96,7,20,16,74,85,52,86,35,99,15,93,85,61,84,13,21,87,79,15,23,43,22,13,72,4,61,44,58,17,25,81,36,5,14,95,40,11,54,79,34,84,56,97,59,22,77,72,40,45,58,94,49,93,89,52,26,42,64,74,20,67,43"
dtnsim.node[10].app.destinationEid = "28,322,181,311,117,126,50,76,245,122,96,86,325,188,126,317,160,61,138,314,287,211,204,244,42,68,177,289,215,325,359,168,283,32,189,228,63,187,167,23,2,348,280,219,148,280,255,6,111,315,22,289,187,350,29,87,258,293,341,60,148,321,216,7,284,319,148,284,128,170,13,168,141,360,69,76,59,11,100,280,58,148,310,279,236,62,72,202,98,79,191,204,242,327,290,273,195,312,294,32"
dtnsim.node[10].app.size = "100,100,50,500,50,500,500,200,500,500,200,50,100,500,100,200,100,200,100,50,500,50,100,500,50,500,50,50,200,100,200,50,100,50,100,100,500,100,200,50,200,500,200,200,200,500,500,500,50,200,50,500,500,50,100,50,200,500,500,500,500,50,100,50,200,50,200,100,500,50,50,100,50,50,200,200,500,500,200,100,200,200,100,500,500,50,100,100,50,100,200,200,100,100,50,100,100,50,500,500"
# Node 11 random traffic
dtnsim.node[11].app.enable = true
dtnsim.node[11].app.bundlesNumber = "6,37,38,33,5,4,37,35,42,27,25,22,14,48,19,22,27,15,44,46,5,39,10,37,8,42,14,17,9,28,41,37,14,24,39,11,24,49,9,20,21,50,32,21,13,39,41,32,8,1,22,50,48,37,22,44,22,23,43,38,24,24,42,45,21,3,48,8,21,34,20,1,24,27,3,2,45,32,27,48,6,9,37,5,40,13,14,31,10,9,37,13,37,11,10,26,21,47,45,48"
dtnsim.node[11].app.start = "79,82,25,33,46,98,34,40,5,47,45,84,8,55,85,13,84,56,42,4,53,69,51,69,98,12,96,56,18,5,7,23,92,75,39,97,53,96,6,23,23,7,10,43,96,2,23,61,47,18,77,84,63,68,19,2,15,59,53,80,68,51,96,20,73,21,12,1,26,77,47,72,7,45,40,49,36,77,67,82,63,89,21,17,59,88,100,24,63,21,47,97,71,72,68,96,93,55,80,70"
dtnsim.node[11].app.destinationEid = "21,94,338,25,10,207,326,169,194,98,293,150,24,164,7,185,350,187,358,328,121,244,234,313,186,267,21,70,99,190,155,84,21,338,262,352,17,19,167,343,274,323,334,280,66,166,169,272,19,133,107,330,94,190,40,192,206,120,167,69,72,243,349,35,168,74,113,297,93,84,5,289,349,98,360,124,82,154,105,114,260,204,180,189,237,53,61,344,177,79,194,201,89,251,8,268,18,183,324,172"
dtnsim.node[11].app.size = "500,200,50,100,50,500,100,500,100,500,500,50,500,200,100,200,50,500,200,50,100,500,500,200,500,200,100,500,200,100,200,100,200,500,50,500,500,50,100,500,100,50,50,50,100,100,50,50,50,50,50,500,100,100,50,100,50,200,500,200,200,100,200,50,50,50,500,50,200,50,50,100,200,100,100,50,200,200,50,100,200,500,200,50,50,50,100,500,50,50,100,500,500,500,500,100,200,50,500,500"
# Node 12 random traffic
dtnsim.node[12].app.enable = true
dtnsim.node[12].app.bundlesNumber = "19,26,47,50,33,46,15,12,29,10,8,25,33,13,33,27,48,12,16,30,11,20,14,17,42,47,5,28,40,32,50,17,44,34,42,43,24,16,23,44,2,1,29,50,14,5,21,50,22,26,8,22,15,48,8,34,33,24,41,5,16,39,8,2,14,1,16,23,13,32,23,35,6,40,13,7,13,46,1,46,43,37,31,27,34,46,43,14,42,49,10,3,15,3,13,33,47,11,43,44"
dtnsim.node[12].app.start = "67,9,80,97,69,54,47,2,75,56,61,29,25,95,13,71,19,68,46,53,84,96,64,10,92,58,58,68,59,63,37,39,37,96,28,72,89,99,66,42,54,50,11,59,85,86,12,88,40,44,22,96,62,55,3,60,45,8,43,66,7,4,8,61,44,87,48,37,71,43,7,81,76,14,1,37,55,5,66,36,4,37,34,35,100,45,62,63,43,98,37,37,97,46,13,88,34,99,97,57"
dtnsim.node[12].app.destinationEid = "98,246,161,74,221,143,135,164,339,112,4,168,163,190,146,46,262,105,272,198,75,244,74,204,131,226,329,31,152,128,278,234,141,155,111,195,341,358,52,181,282,185,215,202,107,262,194,11,27,5,307,103,327,259,108,152,21,300,256,159,219,282,8,98,239,300,357,140,90,188,311,114,309,112,139,80,194,20,86,159,220,74,196,298,115,86,127,279,144,23,131,244,320,88,162,99,69,292,101,190"
dtnsim.node[12].app.size = "100,500,100,100,200,100,100,200,100,50,50,200,500,200,100,500,200,200,200,50,100,500,100,50,50,200,200,200,50,200,200,50,100,200,500,50,200,200,100,500,500,200,100,50,50,100,200,500,50,500,500,200,500,100,50,50,50,100,100,100,50,500,100,50,200,100,100,100,200,500,200,100,200,100,500,100,100,100,500,100,500,200,100,500,100,100,100,500,50,100,500,500,500,500,200,100,50,100,200,100"
# Node 13 random traffic
dtnsim.node[13].app.enable = true
dtnsim.node[13].app.bundlesNumber = "4,30,7,34,16,18,37,7,38,48,11,42,28,32,30,21,16,44,2,21,37,19,10,31,22,22,15,45,48,27,34,33,26,7,47,34,30,49,7,26,50,47,49,35,6,4,11,45,19,23,5,49,42,9,43,12,48,32,6,27,27,5,18,41,46,15,5,21,41,48,28,26,39,5,8,13,24,18,33,45,32,41,20,18,48,13,17,26,30,39,10,25,28,13,28,19,49,18,4,30"
dtnsim.node[13].app.start = "68,7,2,20,20,94,87,77,59,65,87,26,15,3,100,37,78,95,21,41,30,32,39,89,89,70,83,30,43,40,30,95,74,79,15,65,54,82,87,38,62,63,99,69,28,3,92,59,50,11,9,83,62,40,95,13,25,3,25,85,8,52,97,75,75,1,9,58,90,60,28,3,74,4,3,19,96,54,96,3,59,50,44,64,42,54,43,98,34,54,10,78,16,97,20,44,46,99,63,86"
dtnsim.node[13].app.destinationEid = "20,215,116,124,65,224,252,301,160,242,153,246,19,96,5,126,205,43,137,101,33,227,153,246,30,27,335,352,247,116,89,208,174,58,267,294,228,4,163,249,49,197,329,302,68,327,284,315,357,106,201,3,282,142,346,122,96,359,252,134,64,353,58,272,340,307,59,90,324,186,77,141,313,132,238,61,256,164,90,74,177,177,136,102,104,114,66,357,148,310,71,106,151,330,191,27,324,1,307,212"
dtnsim.node[13].app.size = "200,200,500,500,50,200,50,200,50,500,100,100,50,500,500,200,200,100,100,500,50,100,50,50,100,100,500,200,500,50,200,50,100,500,100,500,200,500,50,200,500,500,500,200,500,100,200,500,500,100,50,50,100,100,500,50,500,500,200,100,200,200,200,50,500,200,500,200,200,200,50,500,100,50,50,200,50,200,500,50,100,50,200,100,200,50,500,50,100,50,100,100,100,50,200,100,500,100,100,500"
# Node 14 random traffic
dtnsim.node[14].app.enable = true
dtnsim.node[14].app.bundlesNumber = "10,14,6,46,14,2,34,36,36,19,12,37,9,19,46,32,14,35,36,36,48,44,32,25,40,8,24,24,12,16,17,36,18,38,46,1,39,13,27,2,19,49,25,20,46,47,29,4,22,43,14,45,4,33,13,6,26,5,9,27,35,28,48,9,1,47,2,30,9,25,32,42,38,14,19,21,39,40,8,8,3,1,46,24,8,12,9,48,41,23,22,27,13,38,45,25,29,19,35,17"
dtnsim.node[14].app.start = "82,28,26,91,93,70,42,11,45,80,14,15,77,42,35,4,8,63,76,41,36,37,75,63,53,45,54,51,67,52,62,85,1,50,24,11,35,96,78,16,93,88,12,52,74,19,25,32,83,61,92,76,45,88,49,76,99,12,10,85,58,15,44,28,14,95,79,96,64,50,56,68,62,85,91,87,27,29,43,71,86,38,23,99,84,6,45,99,83,10,45,61,80,61,15,14,26,98,49,99"
dtnsim.node[14].app.destinationEid = "84,54,210,195,87,39,37,242,24,86,144,58,124,22,280,195,23,67,148,141,52,277,302,355,327,70,328,348,343,136,324,217,20,27,265,320,172,36,198,215,314,278,252,211,104,135,246,213,96,103,99,272,180,251,32,296,293,147,257,149,161,353,324,64,166,167,86,169,70,113,103,62,145,159,159,321,248,172,317,149,357,205,76,289,346,68,183,76,278,17,19,336,223,161,15,322,6,82,267,129"
dtnsim.node[14].app.size = "500,500,200,500,50,500,200,200,100,100,50,50,500,100,100,100,200,500,100,500,500,500,200,100,200,100,500,200,50,200,50,50,500,100,200,50,200,100,200,100,500,500,200,500,200,50,50,500,200,500,200,200,50,100,200,500,500,200,50,200,500,100,200,100,500,500,200,50,500,500,50,100,500,500,500,500,500,100,50,50,100,50,500,50,100,100,100,100,200,200,100,200,100,200,100,50,200,200,50,100"
# Node 15 random traffic
dtnsim.node[15].app.enable = true
dtnsim.node[15].app.bundlesNumber = "23,2,50,24,11,24,46,38,1,21,3,19,43,10,24,32,8,36,11,8,32,6,2,17,4,42,41,39,24,23,49,1,26,3,7,47,37,16,5,23,29,5,31,31,6,46,1,17,19,29,36,37,37,48,40,31,3,29,47,21,34,6,12,31,34,41,25,37,24,21,24,9,28,48,33,26,34,41,11,25,14,48,35,18,37,39,30,49,31,9,45,42,38,36,39,40,14,35,14,20"
dtnsim.node[15].app.start = "69,100,30,25,79,87,53,87,10,51,62,84,65,58,15,94,9,45,50,85,75,84,31,88,72,65,39,35,16,1,52,69,92,32,77,82,44,9,80,17,74,45,54,72,7,22,72,62,89,79,39,9,80,8,20,99,83,94,92,88,89,67,9,83,11,19,91,87,58,3,20,51,4,24,11,23,59,75,28,83,56,48,62,70,30,30,96,63,20,76,10,54,41,82,66,99,53,25,70,72"
dtnsim.node[15].app.destinationEid = "342,257,160,251,114,165,213,283,62,138,198,59,217,195,62,322,146,265,324,27,296,284,303,350,217,265,180,152,31,86,238,192,289,59,227,119,273,187,204,249,154,84,342,217,214,203,170,11,233,356,279,1,359,3,310,246,260,81,205,17,97,124,40,192,298,277,120,131,315,122,3,273,345,185,13,339,48,54,19,116,278,360,100,55,261,339,117,338,160,317,330,245,319,72,199,249,126,204,216,268"
dtnsim.node[15].app.size = "50,50,200,100,200,50,200,200,50,500,50,100,100,50,50,50,500,200,500,200,500,50,100,100,100,500,500,50,100,200,200,50,50,50,100,100,50,200,50,50,500,500,50,500,50,200,50,50,100,100,500,500,100,200,50,200,200,200,50,200,100,100,100,500,200,200,100,500,100,50,100,200,100,50,500,200,50,200,500,200,50,200,500,200,500,500,50,100,200,50,200,50,50,500,50,200,100,200,500,100"
# Node 16 random traffic
dtnsim.node[16].app.enable = true
dtnsim.node[16].app.bundlesNumber = "22,5,6,3,35,24,33,15,27,50,40,26,25,13,42,42,49,23,2,29,13,37,13,16,13,15,48,35,25,9,6,45,1,20,30,42,9,38,34,47,40,38,46,39,23,26,33,39,39,15,18,10,28,50,30,13,8,32,45,42,21,15,12,2,44,29,8,14,40,17,38,25,21,28,12,18,41,48,41,41,14,37,13,15,11,25,5,21,21,43,31,38,22,28,44,24,11,17,35,22"
dtnsim.node[16].app.start = "63,34,85,8,18,46,4,78,70,5,69,17,77,66,42,7,30,90,93,88,30,38,29,29,80,34,43,35,8,83,23,7,73,62,12,92,45,7,71,58,32,10,20,68,55,31,31,61,45,92,69,32,47,11,46,28,37,36,70,76,70,9,81,25,3,29,44,71,100,48,98,3,60,9,12,26,43,30,13,83,45,24,17,27,47,2,45,50,27,23,52,50,7,79,61,73,78,90,92,10"
dtnsim.node[16].app.destinationEid = "335,347,258,337,83,332,8,84,101,172,331,272,184,209,306,325,316,288,137,186,203,288,329,210,128,328,70,152,51,262,338,83,252,194,217,52,120,310,143,300,81,337,331,71,136,244,237,57,290,201,108,291,290,286,135,145,77,101,125,278,196,136,259,302,146,274,245,329,202,234,212,186,159,258,237,281,338,43,227,19,271,346,191,215,319,49,172,249,231,338,56,105,25,23,69,153,189,210,174,309"
dtnsim.node[16].app.size = "50,50,200,100,100,50,50,200,500,100,100,200,50,100,100,50,50,100,50,100,100,50,100,500,500,500,500,200,50,500,50,100,500,200,100,500,50,100,50,200,200,200,50,50,100,50,500,100,500,200,500,100,100,100,200,100,200,500,100,500,50,50,50,50,100,100,100,50,50,500,200,50,500,50,500,500,200,100,100,50,50,500,500,200,500,100,500,200,100,200,100,200,200,500,500,100,50,200,500,50"
# Node 17 random traffic
dtnsim.node[17].app.enable = true
dtnsim.node[17].app.bundlesNumber = "43,28,37,44,1,16,19,8,36,34,29,8,36,23,40,40,22,5,24,49,29,7,43,15,41,7,42,14,18,9,50,15,50,11,47,2,11,46,2,47,47,50,47,11,47,16,9,20,38,9,44,40,26,14,9,11,28,21,3,17,41,6,45,22,29,39,44,31,41,15,37,7,2,38,36,25,13,25,25,5,24,47,30,19,23,42,5,24,25,24,4,6,26,18,39,46,33,20,4,19"
dtnsim.node[17].app.start = "90,64,64,44,100,99,86,4,23,1,75,8,14,48,53,100,6,26,77,88,16,36,74,92,48,80,34,86,85,51,78,100,36,97,10,66,12,30,66,75,84,65,90,9,86,100,73,18,30,30,91,19,1,100,24,23,41,27,22,28,30,78,43,93,21,2,72,19,44,10,18,61,14,85,22,99,91,29,41,25,41,46,49,57,94,48,92,49,10,49,39,100,57,6,55,79,87,19,55,58"
dtnsim.node[17].app.destinationEid = "15,87,55,230,195,22,21,33,350,157,78,245,349,197,325,323,253,98,154,219,292,216,303,259,274,340,72,31,132,149,180,298,327,86,210,209,181,94,136,38,22,258,127,182,214,95,258,15,333,288,241,44,98,72,207,109,261,311,227,262,168,219,117,282,208,305,60,353,69,314,50,301,330,66,334,305,256,285,38,64,291,70,271,13,317,5,220,300,44,272,212,110,275,264,280,92,35,307,156,244"
dtnsim.node[17].app.size = "500,500,50,100,100,200,500,50,50,200,500,50,500,200,200,200,500,100,50,500,500,200,100,500,50,100,500,200,200,50,200,50,100,500,100,500,500,100,100,100,500,500,50,500,100,500,50,500,200,100,100,200,500,500,200,100,500,200,200,50,50,50,100,500,100,50,200,100,50,200,500,500,50,500,100,500,500,100,50,50,200,200,50,50,200,200,500,100,50,500,100,200,50,200,100,500,100,100,500,500"
# Node 18 random traffic
dtnsim.node[18].app.enable = true
dtnsim.node[18].app.bundlesNumber = "15,46,15,30,12,22,3,23,35,24,29,22,43,25,37,41,12,11,39,14,28,36,17,35,49,34,27,15,11,25,15,11,7,9,14,5,41,46,40,20,32,2,27,47,20,32,9,16,23,9,27,7,40,10,20,29,50,20,14,35,39,22,28,4,13,22,38,36,39,7,30,6,48,35,1,36,37,2,40,47,37,46,4,41,31,5,27,2,42,3,29,40,22,37,50,6,29,17,50,30"
dtnsim.node[18].app.start = "16,8,36,33,99,60,34,86,88,19,91,34,27,8,99,82,28,35,50,84,67,17,77,45,40,94,39,69,12,35,30,99,41,37,46,19,45,56,9,14,22,15,8,31,5,50,94,77,16,82,30,13,45,9,61,64,46,23,85,6,24,8,100,15,73,12,57,57,52,12,51,88,91,12,68,58,62,19,5,17,23,52,50,73,52,32,20,12,48,25,46,60,4,36,95,57,47,89,99,78"
dtnsim.node[18].app.destinationEid = "24,88,180,27,28,182,354,265,119,231,296,75,267,117,225,147,305,85,203,78,155,131,320,231,70,125,160,210,282,97,112,155,1,227,359,354,31,178,277,309,315,349,245,299,207,162,89,15,124,304,354,123,106,121,60,208,77,260,155,306,322,326,21,201,268,158,54,164,233,16,153,352,98,284,105,59,287,349,156,181,162,227,328,121,280,279,19,290,134,158,338,260,304,56,40,47,325,300,133,59"
dtnsim.node[18].app.size = "200,500,200,500,200,500,100,100,200,200,50,200,50,50,500,50,50,50,500,50,200,500,50,500,200,50,50,50,500,100,50,200,50,100,200,200,100,500,200,50,100,200,100,500,50,200,50,50,200,100,500,50,500,100,100,50,200,500,200,100,500,200,100,500,50,200,500,200,50,500,200,200,500,50,200,200,100,50,100,100,50,500,50,200,100,50,500,50,50,100,200,50,500,500,50,200,200,500,100,50"
# Node 19 random traffic
dtnsim.node[19].app.enable = true
dtnsim.node[19].app.bundlesNumber = "50,43,25,7,45,12,48,32,45,4,1,50,14,16,31,18,1,20,4,39,15,38,33,39,37,8,4,44,5,37,18,26,47,22,30,40,50,3,31,42,22,29,26,22,23,27,50,3,21,24,20,33,20,13,9,27,3,36,18,40,44,35,39,21,15,40,7,28,23,36,11,38,49,26,32,14,49,17,36,49,22,5,48,15,9,16,47,17,8,36,27,22,33,47,35,19,4,25,27,43"
dtnsim.node[19].app.start = "53,50,91,16,91,37,46,71,78,17,44,4,71,75,1,55,93,62,31,77,12,59,44,98,68,54,68,58,2,36,78,52,39,85,83,39,95,49,4,81,82,61,36,63,31,75,97,83,90,77,84,88,92,70,65,32,44,35,11,50,65,69,72,69,28,24,52,85,36,28,66,50,17,58,76,48,86,56,66,97,34,83,18,6,52,82,49,10,52,67,58,53,54,7,9,34,16,84,48,98"
dtnsim.node[19].app.destinationEid = "186,294,121,7,7,143,138,311,151,319,327,347,159,200,3,72,178,334,253,16,257,76,47,161,241,47,245,241,232,153,75,266,138,22,273,37,293,108,191,180,58,277,216,170,111,312,126,121,67,56,347,67,229,163,10,124,357,10,260,108,339,340,63,229,217,30,254,210,172,291,208,121,50,291,269,310,305,299,143,58,302,359,91,213,163,55,177,312,167,31,339,106,312,222,283,350,353,351,199,6"
dtnsim.node[19].app.size = "200,200,100,500,200,500,100,200,500,100,500,100,100,500,100,500,50,50,100,500,100,500,500,200,100,500,50,500,50,500,200,100,500,200,200,500,200,100,50,500,100,50,100,50,500,200,50,200,200,500,100,500,100,50,200,500,50,500,200,200,50,200,100,100,500,200,200,500,500,500,50,50,50,500,500,50,500,100,200,200,50,50,50,500,50,50,100,200,50,50,500,200,100,200,100,100,500,500,200,100"
# Node 20 random traffic
dtnsim.node[20].app.enable = true
dtnsim.node[20].app.bundlesNumber = "37,36,18,40,15,7,36,43,3,13,41,11,38,13,21,18,10,16,42,37,5,24,47,42,16,42,26,50,46,15,24,7,32,40,20,22,8,32,45,34,4,25,14,35,24,38,22,8,27,23,38,41,37,32,46,10,17,38,29,49,28,48,22,18,30,7,45,23,39,37,42,1,30,4,16,34,10,31,14,31,43,30,21,5,2,13,21,7,14,38,8,44,48,49,39,48,45,14,38,29"