[General]
network = src.dtnsim										
repeat = 1
allow-object-stealing-on-deletion = true

# Simulation end time
sim-time-limit = 84600s

# Nodes quantity (identifiers (EiDs) matches their index, EiD=0 is ignored)			
dtnsim.nodesNumber = 240
dtnsim.node[*].icon = "satellite"

# Nodes's failure rates
dtnsim.node[*].fault.enable = true
dtnsim.node[*].fault.meanTTF = 90s
dtnsim.node[*].fault.meanTTR = 10s

# Mobility
dtnsim.node[*].hasMobility = true
dtnsim.node[*].norad.satIndex = parentIndex()
dtnsim.node[*].norad.satName = "sat"
**.updateInterval = 20s
**.numOfSats = 240
**.satPerPlane = 12
**.altitude = 540
**.planes = 20
**.phaseOffset = 11

dtnsim.node[*].dtn.routing = "antop"
dtnsim.node[*].dtn.printRoutingDebug = true

# --- Random Traffic Configuration ---
# Node 1 random traffic
dtnsim.node[1].app.enable = true
dtnsim.node[1].app.bundlesNumber = "4,26,40,18,34,3,6,17,45,1,38,44,10,5,22,30,29,45,26,19,35,39,3,33,20,39,24,48,23,28,40,20,49,22,40,34,18,39,11,32,2,17,42,18,26,18,23,11,12,4,6,6,26,24,38,35,14,14,21,12,9,48,38,49,18,44,8,38,43,48,22,42,9,7,12,13,1,18,35,1,3,35,18,29,15,5,42,43,32,40,16,18,29,42,9,14,19,14,5,45"
dtnsim.node[1].app.start = "71,53,79,78,95,92,83,14,85,31,87,88,43,18,22,76,7,15,68,67,19,55,51,97,54,22,53,1,17,21,71,90,11,82,25,67,57,77,32,27,50,13,15,52,31,25,91,1,74,62,92,71,39,71,85,2,6,62,69,70,72,42,53,100,84,60,92,70,21,92,99,1,40,81,78,47,55,10,8,20,63,40,1,56,19,10,30,68,39,65,63,2,59,6,8,30,7,74,91,93"
dtnsim.node[1].app.destinationEid = "124,78,3,31,187,70,172,180,99,84,118,4,66,182,20,62,96,190,204,112,154,45,228,10,162,10,140,78,199,10,158,53,72,138,132,82,48,116,51,137,193,160,115,216,205,2,131,154,165,28,221,30,21,49,229,225,174,76,98,43,188,91,181,200,230,103,67,72,141,30,65,82,75,5,160,157,113,202,167,240,193,33,160,63,232,58,89,101,167,83,186,60,154,101,52,97,166,135,58,44"
dtnsim.node[1].app.size = "200,100,200,100,200,200,50,100,50,50,500,50,200,200,100,500,500,500,100,100,100,200,500,100,50,200,100,500,200,100,200,200,200,500,200,50,500,500,500,50,500,500,50,200,50,500,200,200,500,500,100,500,50,200,50,100,100,100,500,200,50,50,100,200,100,500,50,50,100,200,500,500,50,200,100,200,100,500,500,500,200,500,100,200,500,500,500,100,100,500,100,500,100,100,50,500,500,50,500,50"
# Node 2 random traffic
dtnsim.node[2].app.enable = true
dtnsim.node[2].app.bundlesNumber = "4,40,35,33,16,21,47,43,11,37,10,14,13,6,28,43,26,8,2,38,4,29,13,11,39,47,24,41,16,30,5,12,27,35,49,26,20,8,1,5,23,3,7,5,14,8,12,16,39,50,24,23,31,18,25,43,46,18,16,25,18,7,49,28,23,35,23,41,16,36,31,19,4,8,13,38,37,5,12,36,34,16,11,12,24,10,12,44,2,26,39,35,17,38,43,25,35,17,26,39"
dtnsim.node[2].app.start = "10,46,38,38,31,30,13,59,85,55,86,60,46,41,75,50,88,64,6,13,14,15,92,27,22,5,84,73,82,61,95,78,56,52,64,96,51,8,100,9,39,83,50,16,28,89,79,47,59,71,63,27,6,90,99,79,75,76,92,83,43,63,65,39,37,84,33,38,17,88,20,79,89,43,70,8,91,39,30,28,80,38,74,43,55,12,28,46,90,3,16,90,88,100,96,44,98,38,27,30"
dtnsim.node[2].app.destinationEid = "106,176,60,131,184,225,199,73,161,184,234,180,129,177,72,118,69,149,225,126,45,186,186,53,181,203,224,225,156,75,125,65,19,134,25,37,29,189,144,123,179,209,134,51,128,18,21,57,110,20,78,185,59,177,86,205,180,168,23,220,213,27,59,143,182,122,147,64,192,159,153,65,173,48,223,151,73,199,145,163,190,224,91,203,22,192,134,154,63,56,123,183,36,233,186,200,222,136,43,82"
dtnsim.node[2].app.size = "50,100,50,200,500,500,50,50,50,500,500,100,200,500,50,500,500,200,100,100,50,200,500,500,500,100,500,100,500,50,500,50,50,500,100,500,500,200,50,200,100,100,200,100,500,100,100,50,50,100,500,200,50,100,50,500,50,50,100,100,200,500,50,500,100,50,100,200,200,200,500,500,50,100,500,500,50,100,200,50,500,100,50,100,200,500,100,50,500,50,500,50,50,100,200,50,50,100,500,100"
# Node 3 random traffic
dtnsim.node[3].app.enable = true
dtnsim.node[3].app.bundlesNumber = "41,32,32,20,41,33,38,39,40,7,35,5,40,26,38,16,45,9,10,26,11,2,35,8,45,22,17,34,45,35,37,25,31,37,50,33,46,32,26,49,13,50,37,16,26,39,6,2,8,39,18,25,9,9,26,14,38,7,36,10,26,34,39,38,28,16,42,49,31,50,46,9,4,13,16,46,7,23,46,1,35,30,30,26,38,17,33,38,31,12,32,11,42,48,17,45,25,13,43,49"
dtnsim.node[3].app.start = "21,37,84,22,12,21,50,27,7,94,51,26,36,63,82,47,85,28,75,14,71,92,23,4,50,72,89,18,8,89,93,94,89,40,18,15,64,2,40,98,64,37,39,18,64,78,33,5,88,37,8,52,80,23,75,83,38,19,61,34,97,9,1,43,87,29,67,21,33,84,80,45,93,12,31,64,86,39,86,60,58,2,86,28,67,62,93,2,97,27,95,35,49,78,69,86,7,76,31,90"
dtnsim.node[3].app.destinationEid = "59,102,192,239,42,8,94,172,115,234,230,65,53,55,99,161,197,123,111,22,133,183,42,205,2,235,183,181,200,153,136,169,8,20,9,192,195,101,73,22,35,79,45,72,15,222,29,201,40,29,144,146,71,44,6,93,49,66,175,52,104,197,145,64,66,28,54,222,204,31,217,153,222,11,111,21,112,132,131,64,239,19,52,237,193,163,167,214,44,184,192,58,44,122,111,195,135,165,190,132"
dtnsim.node[3].app.size = "500,50,100,200,500,500,100,200,50,100,500,200,200,500,200,500,200,50,500,50,100,500,500,100,100,50,50,100,100,100,50,500,500,500,100,50,500,500,500,500,200,500,200,50,200,100,100,50,200,50,200,500,100,500,100,50,100,100,100,100,100,50,50,50,500,50,200,50,200,200,100,50,100,50,200,200,50,500,100,100,50,500,200,500,50,200,100,100,50,500,200,50,100,200,50,200,200,50,100,200"
# Node 4 random traffic
dtnsim.node[4].app.enable = true
dtnsim.node[4].app.bundlesNumber = "50,50,13,19,11,37,4,4,3,13,45,39,31,20,35,11,50,8,21,41,31,33,50,9,42,41,3,3,23,39,26,30,24,25,10,8,10,44,49,7,6,43,28,16,22,39,12,42,10,38,28,39,47,13,13,43,50,36,33,7,19,48,25,44,35,29,3,13,47,6,47,18,39,33,50,29,10,46,36,33,2,14,20,10,9,13,15,23,23,46,19,20,45,12,47,14,24,14,30,41"
dtnsim.node[4].app.start = "7,17,34,55,63,80,87,60,72,79,14,61,20,27,88,34,13,79,14,77,28,40,30,74,98,81,42,28,86,87,36,32,25,14,42,81,75,24,16,72,34,69,28,23,37,80,37,61,41,92,5,37,97,78,17,39,4,2,88,74,41,1,32,1,73,72,100,2,64,75,90,57,5,81,59,97,98,92,52,1,91,94,7,37,10,85,21,77,61,91,64,14,65,94,66,16,1,20,79,31"
dtnsim.node[4].app.destinationEid = "135,108,239,228,135,26,26,23,140,228,129,46,187,219,53,80,149,178,55,198,74,106,67,57,187,93,61,236,216,193,119,231,34,38,108,200,73,219,208,213,48,146,2,159,238,9,191,49,114,69,189,212,36,76,156,19,221,41,160,163,215,199,184,46,158,16,174,102,62,99,133,168,192,176,225,224,60,240,51,168,19,204,200,104,105,192,99,207,225,83,8,224,22,138,157,210,29,125,110,195"
dtnsim.node[4].app.size = "500,200,100,500,50,200,500,200,50,500,500,50,50,100,50,500,100,50,50,500,500,200,500,100,100,500,200,200,500,200,200,500,50,50,200,200,100,50,500,200,500,200,500,500,200,200,500,500,200,50,500,100,200,100,100,100,200,200,100,200,200,200,100,50,500,100,50,100,50,50,100,500,100,50,200,200,500,500,50,100,200,50,100,500,100,500,200,50,50,50,500,100,100,500,100,100,500,200,100,50"
# Node 5 random traffic
dtnsim.node[5].app.enable = true
dtnsim.node[5].app.bundlesNumber = "37,50,36,30,31,39,29,22,11,28,16,48,15,46,26,5,44,7,24,6,41,40,46,41,21,18,45,5,14,20,32,41,5,28,21,2,25,26,22,18,19,42,5,40,19,48,42,23,4,32,15,46,48,24,33,8,11,30,21,6,18,49,25,8,8,40,23,3,49,41,12,35,23,30,26,30,25,2,32,11,35,4,50,10,25,32,32,16,20,50,46,24,20,42,43,37,11,38,2,45"
dtnsim.node[5].app.start = "97,74,100,60,48,77,83,38,31,76,70,74,27,62,27,66,83,29,95,97,34,33,64,59,32,3,66,100,90,90,26,98,100,93,90,39,7,59,41,70,35,28,78,95,55,49,16,9,82,65,5,86,68,11,97,22,40,67,74,84,27,94,18,56,42,57,70,98,3,98,37,7,28,72,31,12,84,93,99,90,89,83,44,68,16,46,68,46,81,91,17,82,19,42,9,99,81,7,23,91"
dtnsim.node[5].app.destinationEid = "2,101,185,197,186,79,102,61,122,88,125,93,176,4,42,22,25,220,172,215,29,58,163,197,119,45,154,227,70,134,39,194,153,39,42,44,107,164,37,238,181,191,232,63,51,122,78,174,51,65,122,146,132,73,59,134,189,239,41,119,220,101,128,183,221,143,67,136,123,57,199,7,50,61,68,237,230,142,229,73,214,210,111,200,105,204,45,26,98,195,59,30,9,214,45,172,164,27,194,104"
dtnsim.node[5].app.size = "200,500,200,200,100,500,500,100,100,100,100,50,100,50,200,500,200,200,100,50,100,100,50,500,200,500,500,200,50,200,50,500,50,100,500,100,200,100,50,100,200,200,100,100,200,100,500,200,100,100,50,200,100,100,50,50,100,100,50,200,500,50,200,500,500,200,50,50,500,500,50,500,100,100,100,100,100,50,500,500,50,200,500,50,50,100,100,50,500,500,500,200,100,200,50,100,50,500,100,200"
# Node 6 random traffic
dtnsim.node[6].app.enable = true
dtnsim.node[6].app.bundlesNumber = "14,26,35,29,8,25,19,17,24,8,18,46,40,34,14,42,4,13,17,7,27,19,1,20,11,48,50,9,32,44,27,19,45,4,14,48,25,11,4,14,32,23,11,31,4,22,27,49,36,38,38,12,28,7,21,37,47,49,33,23,18,44,26,29,40,49,24,35,5,46,12,34,32,8,39,49,6,1,38,23,25,44,39,6,7,36,13,33,7,27,8,24,38,29,21,44,10,4,17,38"
dtnsim.node[6].app.start = "63,44,47,26,93,20,24,41,57,43,30,20,15,66,69,35,80,32,76,16,29,90,77,17,75,99,25,90,65,27,20,10,8,48,58,98,71,45,19,72,27,25,72,25,64,30,36,72,6,92,63,46,31,87,99,38,54,18,59,44,26,67,35,92,99,91,72,9,27,7,78,35,33,52,89,78,99,35,85,44,14,56,2,81,52,42,97,25,15,8,11,40,89,77,64,41,53,61,17,35"
dtnsim.node[6].app.destinationEid = "100,34,5,82,123,103,197,108,235,7,181,117,204,128,71,137,116,199,207,110,80,208,18,193,204,105,112,168,39,35,217,14,112,76,144,54,190,135,58,52,46,52,187,136,37,90,151,139,131,79,64,51,206,87,210,11,149,1,182,229,153,237,69,125,108,151,138,188,191,58,149,52,144,45,127,56,26,89,186,205,232,181,55,51,71,37,47,181,187,118,233,81,67,48,124,188,79,164,142,169"
dtnsim.node[6].app.size = "500,100,500,500,500,200,50,200,500,500,100,50,200,100,200,50,500,200,100,100,500,100,50,50,200,100,200,200,100,50,200,50,50,500,50,50,200,100,500,50,500,50,100,50,200,500,500,50,500,500,500,50,100,100,50,500,50,500,500,100,100,100,100,100,100,200,50,200,100,500,200,500,500,200,50,100,100,100,200,500,200,200,50,100,50,50,200,500,50,500,200,100,100,500,500,50,50,50,500,50"
# Node 7 random traffic
dtnsim.node[7].app.enable = true
dtnsim.node[7].app.bundlesNumber = "15,25,26,32,32,12,24,19,13,46,43,3,10,35,30,32,27,25,45,6,48,18,32,18,35,42,40,44,23,34,46,50,25,26,5,6,10,43,37,35,33,25,48,31,22,46,41,18,9,5,22,32,49,10,15,3,17,42,14,11,4,48,9,28,27,21,12,10,15,49,44,34,1,3,33,50,43,46,19,5,38,29,44,13,12,27,14,8,25,43,32,11,13,39,34,36,17,40,7,46"
dtnsim.node[7].app.start = "18,89,43,16,50,12,39,77,81,89,10,66,32,32,90,84,63,60,86,39,54,34,73,68,64,100,29,3,19,80,36,81,75,89,16,74,6,54,80,96,66,54,42,40,5,68,15,38,66,36,53,52,72,33,64,94,41,65,86,55,46,3,43,26,81,50,97,33,65,96,70,35,30,49,14,22,24,52,10,33,63,80,84,44,52,98,24,75,91,42,17,55,3,59,33,24,60,7,69,2"
dtnsim.node[7].app.destinationEid = "231,115,47,46,174,230,18,231,202,48,27,78,16,98,17,32,169,145,219,53,8,19,121,232,213,33,121,137,19,153,92,105,28,104,44,104,126,140,18,54,44,107,44,67,30,90,215,182,115,135,231,155,220,163,53,22,45,86,128,200,25,145,70,219,144,141,182,113,225,205,232,167,129,22,238,97,55,223,169,236,35,172,231,110,13,116,51,25,34,50,168,75,9,86,206,171,116,134,176,138"
dtnsim.node[7].app.size = "50,500,500,50,50,200,100,50,200,50,50,200,50,100,200,200,50,200,100,100,200,500,200,200,50,50,100,100,500,100,200,500,50,500,100,50,200,500,200,50,200,100,100,500,200,500,100,50,500,200,50,50,100,100,500,200,500,100,200,50,50,100,100,100,200,200,100,200,50,50,100,500,200,100,200,500,100,50,50,50,100,50,200,200,100,200,500,500,200,200,50,50,200,50,200,200,50,500,100,500"
# Node 8 random traffic
dtnsim.node[8].app.enable = true
dtnsim.node[8].app.bundlesNumber = "37,14,1,19,43,21,31,3,38,5,19,15,47,1,30,2,50,14,33,25,23,33,40,44,18,38,40,23,24,43,31,20,14,11,38,12,5,32,40,24,12,7,14,7,36,25,31,2,39,11,46,18,13,9,40,45,41,30,37,20,15,32,34,44,48,29,44,34,14,33,42,4,34,11,42,44,2,13,1,35,24,3,23,19,35,38,37,23,44,28,32,21,7,33,39,26,27,23,38,29"
dtnsim.node[8].app.start = "46,89,87,55,70,14,25,84,59,74,64,47,9,52,28,79,81,67,1,95,99,58,2,67,72,20,75,87,96,18,82,28,3,27,91,68,78,32,4,74,13,21,67,89,57,9,33,65,4,79,36,31,75,95,80,92,51,30,19,63,30,48,15,9,45,37,56,84,44,88,90,71,47,81,38,46,55,71,41,23,93,64,5,38,47,30,80,77,90,88,37,97,27,18,15,11,74,45,10,67"
dtnsim.node[8].app.destinationEid = "94,92,205,39,159,160,229,112,45,38,234,41,52,54,75,187,43,53,68,42,138,221,202,36,42,141,226,162,77,238,133,204,49,230,52,39,27,34,101,186,137,95,95,136,136,196,210,107,84,30,150,145,68,62,13,218,48,111,33,52,16,51,227,132,107,2,240,112,36,182,221,191,6,151,229,135,200,209,137,37,34,29,145,97,222,6,125,199,240,193,73,160,236,135,174,168,109,173,217,131"
dtnsim.node[8].app.size = "50,500,200,200,500,200,50,50,50,200,200,50,500,500,500,50,100,100,500,500,50,500,100,500,500,100,500,100,200,100,100,50,200,200,500,500,50,200,50,200,50,200,50,100,200,50,200,50,50,100,50,500,200,200,50,500,500,100,200,100,200,500,500,200,200,200,500,50,500,50,200,200,100,200,50,50,500,200,100,100,200,100,50,200,500,50,200,500,50,100,200,100,500,200,200,500,200,200,500,500"
# Node 9 random traffic
dtnsim.node[9].app.enable = true
dtnsim.node[9].app.bundlesNumber = "29,11,15,40,32,7,12,2,25,41,1,23,26,18,37,34,16,34,14,26,29,5,3,49,40,21,18,7,22,25,7,48,36,43,50,37,16,35,41,15,33,50,41,44,33,42,19,18,5,8,41,40,48,28,2,34,36,16,17,34,11,2,31,43,7,44,48,48,7,48,24,7,46,42,18,48,26,45,21,24,28,37,37,21,26,7,7,19,2,12,29,34,35,15,35,48,14,43,26,49"
dtnsim.node[9].app.start = "31,88,87,75,70,43,31,63,3,91,54,12,16,56,90,51,28,88,33,59,8,90,61,69,76,63,42,53,47,25,32,15,19,92,73,88,32,11,71,50,63,59,1,82,75,87,92,56,2,59,38,81,97,24,53,77,98,82,92,58,90,68,65,68,98,78,10,77,14,8,79,5,53,60,73,70,91,46,45,13,41,88,18,85,10,79,80,33,69,15,14,29,49,76,73,67,67,23,20,95"
dtnsim.node[9].app.destinationEid = "6,118,173,15,187,93,39,224,153,205,15,67,71,73,30,64,124,226,193,46,228,18,116,38,218,69,29,48,27,139,42,112,169,188,223,86,38,160,30,67,74,84,32,4,214,214,144,52,1,70,122,141,157,149,91,203,73,226,236,143,68,180,2,53,60,7,122,152,225,144,22,5,144,86,58,97,70,154,146,29,99,60,174,183,168,210,44,7,204,44,60,75,226,59,193,86,39,204,219,202"
dtnsim.node[9].app.size = "500,200,50,100,100,500,500,200,200,500,500,200,50,50,100,500,50,200,100,50,50,100,200,50,50,500,500,500,500,50,500,50,200,100,200,50,100,100,200,50,500,50,100,50,50,100,100,50,100,200,100,200,100,50,500,50,50,50,50,200,50,100,500,500,50,100,500,200,500,50,500,200,500,500,200,100,200,100,200,50,200,200,200,200,500,100,200,100,50,500,50,50,50,50,50,100,100,100,50,200"
# Node 10 random traffic
dtnsim.node[10].app.enable = true
dtnsim.node[10].app.bundlesNumber = "34,27,22,23,10,40,48,8,24,12,10,13,16,1,49,31,1,46,6,26,24,34,14,49,8,19,44,40,48,40,10,9,12,21,20,44,12,22,45,37,9,18,37,42,15,12,46,22,38,14,43,29,35,43,43,34,17,49,34,24,2,43,15,1,35,46,16,28,26,22,4,34,38,18,3,29,40,44,28,49,47,27,31,45,32,46,48,44,40,43,24,29,22,33,19,10,38,37,39,20"
dtnsim.node[10].app.start = "100,63,19,16,65,20,3,16,58,83,98,90,95,19,67,18,91,46,2,2,46,98,51,42,48,66,74,80,3,34,18,66,4,20,16,37,61,14,69,17,20,33,49,22,57,64,74,51,23,94,36,64,9,63,32,18,59,34,86,62,77,2,46,80,81,81,58,57,45,40,55,21,62,78,54,72,67,5,24,91,16,90,77,98,42,27,27,65,52,16,68,11,7,36,57,82,34,33,6,99"
dtnsim.node[10].app.destinationEid = "162,240,42,214,45,187,14,240,156,138,146,56,136,132,175,191,64,70,171,133,6,168,3,53,100,133,193,85,20,47,131,217,157,59,80,240,204,204,73,43,163,77,68,15,196,238,2,149,196,114,209,142,24,174,222,103,36,78,218,204,41,124,201,152,125,27,110,13,96,135,98,160,87,71,48,99,34,228,94,163,15,131,119,91,146,219,96,84,45,214,207,18,88,130,30,25,81,110,192,149"
dtnsim.node[10].app.size = "500,500,200,50,500,200,100,500,500,100,100,200,100,200,200,500,100,100,500,500,50,500,100,500,200,100,500,50,200,200,50,50,500,50,50,500,100,50,50,500,500,50,100,500,500,200,50,200,500,100,100,100,500,100,500,500,500,200,100,50,50,200,500,500,50,100,200,500,500,500,200,500,100,100,50,50,50,50,50,100,200,100,200,50,100,200,500,50,500,50,100,100,100,50,100,100,50,50,100,100"
# Node 11 random traffic
dtnsim.node[11].app.enable = true
dtnsim.node[11].app.bundlesNumber = "47,18,11,28,20,49,6,35,35,44,37,13,26,32,47,43,34,36,7,19,21,16,34,39,37,7,9,26,21,7,26,35,49,14,48,17,8,43,39,34,17,37,3,4,5,8,19,2,43,18,21,22,11,49,40,27,28,19,14,9,15,4,27,14,3,4,50,32,14,43,44,12,9,10,18,12,36,40,31,42,19,35,32,4,18,50,12,22,7,11,45,21,28,14,46,43,45,45,22,47"
dtnsim.node[11].app.start = "69,33,40,39,41,31,24,51,51,68,62,77,28,70,3,25,38,43,96,45,45,83,75,3,71,31,33,14,10,31,9,14,2,7,36,46,39,98,40,87,8,29,75,71,36,40,75,55,7,89,92,92,47,16,75,79,35,16,10,55,26,6,92,19,67,48,80,91,69,73,85,53,2,62,75,100,41,64,42,39,18,15,92,26,47,80,64,32,31,81,63,57,28,35,19,77,34,83,82,58"
dtnsim.node[11].app.destinationEid = "169,113,137,6,182,224,124,120,116,135,80,117,178,145,77,183,224,118,236,160,222,118,147,158,114,66,15,31,164,141,90,27,79,146,144,117,228,205,147,72,45,48,33,76,80,60,219,32,22,69,123,103,217,49,171,96,231,194,188,175,147,7,160,163,128,85,157,120,10,137,189,59,182,13,129,90,155,55,183,35,240,119,34,50,138,70,115,116,113,23,130,186,114,96,132,150,76,223,132,59"
dtnsim.node[11].app.size = "50,500,100,200,100,500,100,200,50,200,100,50,100,200,100,200,50,100,200,500,100,100,500,100,50,100,200,200,200,200,500,50,50,200,50,500,500,500,100,500,500,50,200,500,200,50,50,100,100,50,100,50,100,200,50,500,200,50,50,200,100,500,500,100,200,100,500,500,100,500,200,200,500,200,50,50,100,200,200,50,100,50,50,100,500,50,100,500,200,200,200,50,200,50,200,100,500,100,50,200"
# Node 12 random traffic
dtnsim.node[12].app.enable = true
dtnsim.node[12].app.bundlesNumber = "47,50,5,35,44,28,21,13,12,34,36,4,30,42,11,30,29,41,29,27,34,49,37,49,13,27,20,24,16,2,26,15,10,50,13,32,42,34,14,21,32,5,9,42,46,7,1,30,2,32,39,13,10,7,30,20,24,38,31,39,28,39,12,49,39,21,12,43,3,45,9,41,44,35,9,23,35,20,43,29,45,1,15,12,24,25,16,16,26,8,47,25,4,10,27,40,19,13,9,45"
dtnsim.node[12].app.start = "5,45,66,71,73,15,74,5,9,16,54,18,38,60,7,17,36,56,9,76,46,82,82,30,19,22,99,83,79,18,21,22,77,2,51,78,76,85,58,36,73,61,93,28,97,22,15,78,68,92,32,79,32,87,87,21,87,71,10,92,11,92,18,53,57,87,40,34,20,72,78,12,58,98,10,69,63,64,1,53,66,78,56,59,72,55,20,88,21,88,59,90,52,11,15,65,93,86,9,97"
dtnsim.node[12].app.destinationEid = "227,60,146,75,77,104,140,108,144,83,208,61,27,230,55,167,151,7,102,98,157,38,204,84,218,64,64,111,24,201,134,139,190,222,1,122,124,166,209,197,2,94,127,174,117,63,40,35,31,45,150,54,215,87,35,210,49,60,1,134,217,85,36,217,124,119,30,154,126,100,234,73,206,196,98,192,147,173,34,230,184,49,236,169,170,69,180,169,235,152,27,98,100,141,222,177,217,114,32,102"
dtnsim.node[12].app.size = "200,100,50,100,500,100,50,200,200,200,500,500,200,50,500,200,50,50,100,50,50,100,200,50,50,200,50,200,100,200,200,200,100,200,500,200,50,500,500,200,100,100,100,50,500,200,500,100,100,200,200,50,200,100,50,50,50,500,50,200,50,50,500,50,500,50,100,100,50,500,500,100,500,200,500,500,500,500,50,500,500,200,200,50,100,200,500,100,200,50,100,500,50,200,100,100,500,50,200,500"
# Node 13 random traffic
dtnsim.node[13].app.enable = true
dtnsim.node[13].app.bundlesNumber = "21,33,39,41,34,45,6,6,14,9,6,41,50,28,29,13,23,34,24,47,4,45,28,32,38,41,46,23,5,28,7,5,19,10,33,12,41,1,36,38,45,47,27,32,10,10,34,50,28,7,23,19,43,3,21,32,23,50,16,40,29,9,44,48,23,4,15,49,27,36,43,46,38,9,48,10,12,3,15,16,17,21,39,46,32,5,14,32,7,33,16,12,44,16,5,48,3,10,20,14"
dtnsim.node[13].app.start = "81,98,60,96,14,95,81,25,26,69,69,18,66,94,91,94,56,55,23,62,71,31,49,90,88,6,38,57,67,42,37,85,62,95,66,37,53,28,75,67,7,44,76,7,22,19,80,36,46,98,40,66,57,87,17,92,53,88,80,100,96,38,69,14,57,55,59,79,56,91,34,98,37,77,94,2,63,96,5,36,27,28,27,68,35,60,44,79,93,37,100,29,80,7,79,48,90,4,43,39"
dtnsim.node[13].app.destinationEid = "215,126,220,142,98,200,239,135,122,112,226,216,147,3,227,60,54,162,57,53,15,204,154,12,138,180,187,210,67,39,173,237,163,134,127,15,5,63,110,148,105,102,38,127,119,175,34,173,3,28,190,22,21,238,56,109,95,212,24,71,188,23,27,234,224,125,106,5,53,99,155,117,215,176,109,63,219,117,89,235,221,117,47,101,40,73,228,220,181,82,128,144,226,102,112,131,21,166,177,208"
dtnsim.node[13].app.size = "50,50,50,500,500,50,50,50,100,500,200,500,100,200,100,50,100,50,500,500,100,100,500,100,50,50,500,100,100,50,100,50,50,500,100,50,200,500,500,50,100,100,200,50,500,100,200,500,500,50,500,200,100,500,500,200,500,50,50,100,50,200,500,200,500,100,50,200,200,100,500,100,500,50,500,500,100,500,500,50,200,200,100,500,200,200,100,500,200,50,500,100,500,200,200,500,100,100,100,50"
# Node 14 random traffic
dtnsim.node[14].app.enable = true
dtnsim.node[14].app.bundlesNumber = "35,34,27,47,7,33,28,27,18,32,31,7,45,24,33,46,16,8,14,14,17,43,44,34,18,18,1,1,15,28,12,29,31,36,38,46,12,9,24,12,15,4,15,9,37,47,29,8,49,26,11,49,48,47,29,28,37,16,3,7,38,3,44,43,11,48,32,19,44,28,24,21,39,31,3,43,15,34,43,47,25,42,49,21,30,18,31,47,50,43,42,14,19,49,18,3,26,5,38,29"
dtnsim.node[14].app.start = "85,30,30,67,56,86,86,28,98,32,50,95,44,96,29,41,74,14,9,41,62,32,74,75,7,77,40,68,87,49,17,78,32,58,76,23,18,98,65,10,54,71,87,53,19,84,68,16,62,3,93,66,2,87,77,38,15,24,75,5,98,92,22,89,30,91,74,95,43,14,30,33,76,93,62,19,90,55,25,85,6,23,55,14,25,50,72,76,62,57,61,71,17,58,50,61,95,68,38,90"
dtnsim.node[14].app.destinationEid = "6,161,22,205,96,54,171,43,68,15,40,90,74,84,135,35,48,183,190,129,21,145,196,73,183,38,212,101,152,194,43,35,59,73,89,110,71,203,235,201,199,86,236,222,110,48,189,225,40,49,23,87,184,74,86,88,74,224,3,62,102,149,204,142,91,84,218,100,49,112,108,102,133,186,114,116,159,230,18,194,120,125,159,127,168,111,164,24,165,208,27,240,2,59,140,160,160,223,88,2"
dtnsim.node[14].app.size = "100,100,200,500,500,500,100,50,50,50,500,100,500,500,200,500,50,100,100,500,100,500,200,500,500,100,200,200,100,500,500,50,50,50,500,200,200,50,50,50,500,50,100,500,200,200,500,100,500,500,500,500,200,500,100,100,100,100,200,50,100,500,200,500,200,500,200,50,50,50,100,100,100,200,50,500,50,200,50,100,200,50,50,100,500,200,200,200,50,50,500,500,200,50,100,500,100,200,500,500"
# Node 15 random traffic
dtnsim.node[15].app.enable = true
dtnsim.node[15].app.bundlesNumber = "16,19,15,49,29,25,29,3,44,47,12,3,23,10,17,21,34,43,21,41,20,39,42,33,22,41,14,8,44,10,1,4,40,11,25,7,13,26,33,10,46,49,14,16,28,10,40,37,25,35,2,14,31,41,10,32,16,26,42,31,9,2,43,31,6,38,10,16,43,15,48,20,14,11,33,41,15,43,37,3,35,44,35,28,26,19,42,6,15,39,2,25,32,50,2,33,34,20,33,48"
dtnsim.node[15].app.start = "84,94,11,67,32,93,50,61,41,25,15,23,24,67,98,20,63,70,77,30,17,11,33,21,23,82,79,98,50,26,65,83,75,57,15,85,35,97,18,18,87,53,58,60,93,65,43,36,4,32,72,8,83,9,51,15,2,35,39,76,77,77,3,33,46,91,38,90,73,64,70,4,82,9,27,88,100,59,100,47,73,36,45,82,61,82,11,87,86,89,100,7,92,63,19,55,54,4,90,26"
dtnsim.node[15].app.destinationEid = "67,206,74,182,110,187,165,126,163,142,176,195,88,130,187,127,25,111,62,105,143,128,73,168,236,33,70,203,130,225,120,75,197,11,11,42,16,75,49,75,5,230,35,169,53,129,205,31,24,147,232,104,1,92,82,194,2,108,214,36,47,40,204,117,91,216,217,172,47,197,200,61,187,199,73,149,59,68,189,18,197,43,54,214,12,224,74,207,174,143,159,11,73,4,144,149,27,120,123,201"
dtnsim.node[15].app.size = "100,500,50,200,500,100,100,50,50,500,500,500,100,100,100,200,100,50,50,500,50,50,100,50,100,50,200,200,500,50,50,200,200,500,100,200,200,100,50,50,50,200,50,50,500,500,100,100,500,100,100,100,100,200,200,100,200,500,100,100,200,500,500,500,500,50,100,200,50,50,100,100,50,50,500,100,100,200,200,200,500,500,50,500,50,100,200,100,100,50,200,500,500,200,500,50,200,200,500,50"
# Node 16 random traffic
dtnsim.node[16].app.enable = true
dtnsim.node[16].app.bundlesNumber = "2,1,42,41,31,3,8,24,7,33,42,2,45,8,19,29,47,19,23,3,19,18,29,7,23,44,23,16,23,45,30,41,28,45,48,23,40,20,16,25,45,26,18,32,24,32,14,4,13,36,10,40,48,43,13,21,24,28,1,40,44,14,1,48,45,9,35,47,14,8,28,32,23,42,14,9,16,35,27,15,11,23,24,36,41,37,25,5,46,14,14,49,9,15,22,24,37,31,17,16"
dtnsim.node[16].app.start = "64,19,56,41,83,37,76,39,35,52,81,87,1,59,37,71,20,4,48,32,17,19,5,81,39,99,89,23,2,56,25,62,72,93,77,62,44,47,97,69,3,89,93,36,32,32,43,1,79,55,18,100,68,20,82,44,29,6,15,30,57,62,31,28,43,23,79,42,56,6,67,85,42,70,95,80,12,63,44,9,68,44,27,45,57,68,54,5,96,41,23,85,72,22,50,14,26,9,78,40"
dtnsim.node[16].app.destinationEid = "102,170,209,183,120,93,107,43,181,20,179,82,164,51,129,44,28,140,171,145,174,20,22,63,122,219,211,24,141,105,72,165,76,5,164,45,211,122,199,109,50,6,230,24,81,188,54,2,42,89,15,66,225,177,178,178,7,91,45,183,80,202,154,118,150,187,34,111,20,142,77,154,108,74,136,114,206,116,218,28,170,166,113,64,80,110,178,184,131,238,84,62,111,149,118,224,34,150,3,37"
dtnsim.node[16].app.size = "100,500,500,500,500,200,50,200,500,100,100,100,100,100,500,100,500,100,200,100,500,50,200,50,500,100,50,200,100,500,500,100,200,100,200,100,500,200,200,100,50,100,500,200,100,50,100,50,500,50,100,200,100,500,500,200,50,100,200,200,500,200,200,500,100,200,200,100,100,500,200,50,500,200,500,50,100,500,500,100,500,100,100,500,100,100,100,50,100,100,500,200,50,50,50,100,500,100,100,100"
# Node 17 random traffic
dtnsim.node[17].app.enable = true
dtnsim.node[17].app.bundlesNumber = "46,27,12,3,30,48,50,23,17,27,47,9,49,38,29,28,5,48,41,41,39,13,25,12,24,10,34,42,5,19,21,50,24,21,36,33,48,27,37,39,25,6,5,12,39,44,16,11,17,16,22,16,34,16,27,1,45,16,31,46,45,4,38,48,15,42,38,7,32,27,12,27,11,6,31,22,44,20,5,35,19,22,45,13,19,2,17,40,34,41,22,19,13,19,3,48,31,17,9,32"
dtnsim.node[17].app.start = "91,84,75,37,8,39,89,85,80,19,12,28,39,57,68,69,97,18,3,86,91,21,29,41,46,18,2,31,39,14,97,35,70,35,32,3,100,37,84,43,27,87,10,70,77,8,88,10,22,14,98,32,62,10,45,66,8,42,59,26,40,25,36,46,54,22,89,61,23,28,28,43,44,21,88,15,45,76,36,12,90,97,16,31,61,61,69,60,26,42,91,78,54,12,10,8,47,65,33,49"
dtnsim.node[17].app.destinationEid = "211,163,8,168,42,218,205,109,186,172,78,186,238,96,121,86,139,186,48,54,95,133,174,157,217,157,120,187,225,211,55,175,24,142,226,238,28,55,59,162,234,36,101,184,82,213,166,83,90,63,81,44,145,1,169,74,116,13,151,213,176,81,89,236,220,36,181,203,86,61,32,144,177,90,129,13,80,107,113,236,124,161,230,33,180,177,206,143,113,96,90,14,204,216,51,210,136,60,188,152"
dtnsim.node[17].app.size = "100,500,50,500,100,100,500,100,50,500,100,50,200,500,200,50,100,100,50,500,100,100,200,200,500,500,50,500,50,200,500,50,500,200,500,500,200,500,200,100,50,200,500,200,50,200,100,500,100,200,500,200,500,50,50,200,50,200,50,50,200,500,200,100,200,500,50,50,100,100,200,50,500,50,200,50,500,50,100,100,100,100,200,100,100,200,500,500,200,500,50,50,50,500,50,100,200,200,100,50"
# Node 18 random traffic
dtnsim.node[18].app.enable = true
dtnsim.node[18].app.bundlesNumber = "34,28,9,20,29,33,47,5,10,14,24,50,44,37,17,35,49,9,25,13,24,5,49,32,33,8,4,21,44,20,39,12,32,45,33,9,23,50,47,1,9,27,20,7,38,6,32,7,35,31,14,26,45,1,37,5,36,35,26,44,11,7,19,49,31,19,9,19,44,6,15,32,4,19,13,46,23,4,42,3,21,18,12,20,43,42,26,26,21,30,36,15,6,44,18,29,45,26,4,14"
dtnsim.node[18].app.start = "47,46,51,98,79,8,81,6,92,86,22,63,68,41,96,9,25,59,91,81,66,86,46,77,73,80,63,19,53,48,64,36,6,30,11,34,63,32,77,83,84,2,70,7,77,34,56,65,25,78,26,86,100,100,61,14,17,91,22,28,39,99,30,16,92,63,61,7,70,2,44,51,30,48,86,73,56,30,21,16,34,21,19,35,54,53,15,44,91,87,85,45,29,51,16,54,28,42,33,71"
dtnsim.node[18].app.destinationEid = "150,226,72,106,81,202,84,203,99,234,124,50,187,152,190,229,109,15,9,206,200,64,151,216,102,24,135,54,60,191,87,219,8,113,115,71,93,61,178,124,182,188,187,63,138,189,64,60,90,45,11,143,171,55,233,214,41,74,233,79,72,170,145,224,5,85,7,69,34,21,9,164,48,5,198,10,171,217,129,58,209,128,64,134,71,102,227,62,97,144,217,182,184,223,139,95,171,218,46,159"
dtnsim.node[18].app.size = "500,50,50,500,500,200,50,100,100,100,200,100,500,200,200,50,500,500,200,100,500,200,200,50,100,100,500,200,500,200,200,200,500,100,500,100,500,100,500,50,500,200,50,100,200,500,50,50,100,500,100,200,200,200,50,200,500,50,100,500,100,50,100,200,500,500,100,200,50,100,500,500,200,500,200,50,50,200,100,500,100,100,200,100,500,200,200,200,200,500,200,100,200,50,500,500,100,100,100,200"
# Node 19 random traffic
dtnsim.node[19].app.enable = true
dtnsim.node[19].app.bundlesNumber = "34,17,3,27,34,43,41,4,22,21,14,1,22,34,24,25,40,2,7,13,28,35,46,31,15,7,18,23,33,22,43,25,13,4,32,34,42,26,43,11,7,45,48,15,1,44,24,32,17,20,15,47,25,38,19,23,32,4,9,13,7,46,30,40,32,39,13,44,42,5,46,45,16,48,14,39,37,43,28,30,7,21,49,20,34,8,38,24,40,26,40,11,11,35,9,15,9,49,17,5"
dtnsim.node[19].app.start = "34,89,58,12,17,78,51,53,12,71,9,57,75,8,40,51,14,69,98,14,96,71,98,71,98,61,97,87,94,23,31,13,14,91,43,29,44,38,26,95,69,61,82,39,38,82,63,74,28,26,55,100,70,51,60,76,16,55,50,34,72,27,86,93,23,70,41,45,94,77,72,17,67,94,14,71,31,3,28,38,23,95,69,57,74,45,87,24,51,71,69,39,25,30,76,13,100,19,20,72"
dtnsim.node[19].app.destinationEid = "52,97,95,130,125,222,46,199,127,176,79,98,139,49,92,232,3,88,124,129,92,138,67,32,13,212,227,65,177,121,64,66,113,48,96,91,113,82,22,35,138,38,106,174,240,144,85,27,185,193,45,205,199,36,28,107,221,208,89,136,138,137,219,212,76,131,161,233,106,213,67,157,11,202,32,154,48,130,153,164,64,22,94,180,103,107,32,4,84,94,149,196,33,1,99,110,130,176,209,111"
dtnsim.node[19].app.size = "100,100,500,200,100,500,50,200,100,100,50,500,50,500,100,200,100,100,200,200,200,50,500,500,100,500,50,200,100,500,200,500,500,100,200,100,100,100,500,50,50,50,200,100,500,50,50,100,50,50,500,500,50,200,50,50,500,100,500,50,200,100,500,200,500,100,200,200,100,50,100,200,200,50,200,100,50,50,50,100,100,50,500,100,200,200,200,200,200,50,100,100,500,500,50,100,200,50,100,200"
# Node 20 random traffic
dtnsim.node[20].app.enable = true
dtnsim.node[20].app.bundlesNumber = "2,24,21,21,2,32,30,46,11,18,25,6,46,47,37,11,33,35,48,25,5,46,9,29,26,30,10,46,49,20,37,29,17,14,11,8,50,5,25,50,45,43,22,24,13,31,43,36,48,8,28,38,25,48,10,6,30,7,37,25,44,2,13,42,8,33,42,29,31,12,45,40,37,18,18,9,16,46,27,43,48,23,42,38,24,5,16,36,46,48,18,17,34,39,41,16,18,4,44,35"
dtnsim.node[20].app.start = "38,9,16,33,24,30,100,99,38,50,82,35,14,47,4,33,76,9,53,88,29,17,96,23,92,15,91,40,32,94,92,46,17,65,46,27,34,70,49,83,1,18,31,17,29,7,32,95,50,95,10,93,59,26,79,41,100,39,45,43,64,23,67,1,60,35,23,17,40,49,50,74,79,22,23,14,73,28,3,27,43,82,22,43,41,11,59,24,11,65,10,60,31,78,72,60,30,85,44,89"