[General]
network = src.dtnsim										
repeat = 1
allow-object-stealing-on-deletion = true

# Simulation end time
sim-time-limit = 84600s

# Nodes quantity (identifiers (EiDs) matches their index, EiD=0 is ignored)			
dtnsim.nodesNumber = 120
dtnsim.node[*].icon = "satellite"

# Nodes's failure rates
dtnsim.node[*].fault.enable = false
dtnsim.node[*].fault.meanTTF = 0s
dtnsim.node[*].fault.meanTTR = 0s

# Mobility
dtnsim.node[*].hasMobility = true
dtnsim.node[*].norad.satIndex = parentIndex()
dtnsim.node[*].norad.satName = "sat"
**.updateInterval = 20s
**.numOfSats = 120
**.satPerPlane = 10
**.altitude = 540
**.planes = 12
**.phaseOffset = 7

dtnsim.node[*].dtn.routing = "antop"
dtnsim.node[*].dtn.printRoutingDebug = true

# --- Random Traffic Configuration ---
# Node 1 random conversational traffic
dtnsim.node[1].app.enable = true
dtnsim.node[1].app.bundlesNumber = "2,2,5,1,3,2,3,5,2,5,4,3,3,2,5,4,2,3,4,3,5,4,2,1,2,4,1,4,5,1,1,3,3,3,4,4,2,5,1,1,1,1,5,3,1,5,2,5,2,4,1,4,5,1,1,5,1,3,4,4,3,1,4,5,3,1,3,1,4,4,3,5,4,1,1,2,4,3,1,1,2,1,4,1,3,2,1,1,2,1,3,5,3,2,3,4,2,4,1,4"
dtnsim.node[1].app.start = "87,17,99,94,34,11,59,2,56,23,62,80,7,20,97,93,76,71,61,64,5,88,25,38,42,86,43,83,16,52,90,90,20,91,19,99,83,14,100,89,55,21,7,47,22,90,19,83,89,74,84,73,84,35,94,44,86,33,56,26,96,19,73,78,2,76,21,53,25,97,60,44,85,14,19,8,29,9,22,26,90,3,97,20,47,47,58,54,36,71,60,67,90,80,65,13,62,17,37,56"
dtnsim.node[1].app.destinationEid = "2,2,2,2,2,2,2,2,2,2,2,2,2,2,2,2,2,2,2,2,2,2,2,2,2,2,2,2,2,2,2,2,2,2,2,2,2,2,2,2,2,2,2,2,2,2,2,2,2,2,2,2,2,2,2,2,2,2,2,2,2,2,2,2,2,2,2,2,2,2,2,2,2,2,2,2,2,2,2,2,2,2,2,2,2,2,2,2,2,2,2,2,2,2,2,2,2,2,2,2"
dtnsim.node[1].app.size = "500,50,200,200,100,500,200,50,50,50,500,100,500,50,100,200,200,50,200,100,200,200,50,200,200,200,100,50,50,100,100,50,50,50,100,50,200,50,500,50,100,200,200,500,50,50,500,100,100,500,200,200,500,200,50,50,50,200,100,500,200,100,500,50,500,100,500,50,500,200,500,50,100,200,500,500,500,500,500,200,200,500,500,200,100,500,500,500,500,500,100,500,100,50,100,500,100,100,50,500"
# Node 2 random conversational traffic
dtnsim.node[2].app.enable = true
dtnsim.node[2].app.bundlesNumber = "1,3,4,5,2,2,2,2,5,3,4,3,2,4,4,1,5,5,4,2,1,1,2,3,3,1,5,1,2,4,4,4,3,1,1,1,3,3,5,4,5,2,3,5,5,3,1,5,3,5,5,5,5,2,2,2,4,2,4,2,4,4,2,2,5,5,1,2,2,5,5,4,2,2,4,5,3,1,4,1,5,4,1,2,4,2,4,3,2,1,1,2,3,2,4,4,5,3,1,2"
dtnsim.node[2].app.start = "23,100,95,10,25,63,86,14,22,94,77,68,65,15,98,29,44,44,91,19,61,94,97,25,97,100,86,22,100,99,28,16,30,91,27,84,93,75,93,79,36,97,91,37,65,33,81,84,84,23,63,88,10,31,29,97,99,55,59,63,74,67,68,87,65,46,57,84,73,39,68,91,24,65,11,45,32,74,47,26,37,5,18,45,6,19,7,72,41,33,86,32,10,46,97,43,75,87,8,8"
dtnsim.node[2].app.destinationEid = "1,1,1,1,1,1,1,1,1,1,1,1,1,1,1,1,1,1,1,1,1,1,1,1,1,1,1,1,1,1,1,1,1,1,1,1,1,1,1,1,1,1,1,1,1,1,1,1,1,1,1,1,1,1,1,1,1,1,1,1,1,1,1,1,1,1,1,3,3,3,3,3,3,3,3,3,3,3,3,3,3,3,3,3,3,3,3,3,3,3,3,3,3,3,3,3,3,3,3,3"
dtnsim.node[2].app.size = "200,50,50,100,100,50,500,100,500,500,200,100,100,50,500,500,200,100,100,500,50,100,200,100,50,100,500,500,100,50,100,500,200,50,50,200,200,500,200,50,500,100,50,50,500,200,500,100,200,50,50,50,100,50,500,50,50,500,200,500,50,50,50,100,500,200,50,500,100,500,200,500,500,100,100,500,200,200,50,500,100,50,50,100,500,500,500,100,200,500,50,100,200,100,200,100,50,100,500,500"
# Node 3 random conversational traffic
dtnsim.node[3].app.enable = true
dtnsim.node[3].app.bundlesNumber = "3,5,1,3,3,2,1,4,1,5,3,4,3,3,2,4,5,4,2,2,5,2,3,3,4,2,1,5,4,2,5,4,3,3,2,1,3,3,4,4,5,5,1,5,2,1,5,2,2,3,3,4,4,3,4,4,4,4,3,4,5,4,1,1,3,3,1,1,3,4,4,2,4,1,3,1,4,4,5,3,1,2,3,1,2,5,2,5,3,2,4,3,2,2,2,1,2,4,4,2"
dtnsim.node[3].app.start = "74,73,68,13,52,42,52,34,47,11,12,21,15,37,52,99,81,90,11,89,45,29,89,70,8,55,27,38,40,38,36,84,5,76,63,64,97,74,39,33,89,87,50,3,29,77,1,77,93,20,42,97,48,89,13,4,17,39,16,23,31,8,74,44,41,19,1,22,24,20,24,95,62,50,70,37,99,56,34,79,11,80,49,44,79,91,48,5,47,15,45,33,48,63,86,86,4,82,75,42"
dtnsim.node[3].app.destinationEid = "2,2,2,2,2,2,2,2,2,2,2,2,2,2,2,2,2,2,2,4,4,4,4,4,4,4,4,4,4,4,4,4,4,4,4,4,4,4,4,4,4,4,4,4,4,4,4,4,4,4,4,4,4,4,4,4,4,4,4,4,4,4,4,4,4,4,4,4,4,4,4,4,4,4,4,4,4,4,4,4,4,4,4,4,4,4,4,4,4,4,4,4,4,4,4,4,4,4,4,4"
dtnsim.node[3].app.size = "500,500,500,500,500,200,200,500,500,200,100,200,100,500,100,50,50,100,50,200,200,200,500,50,500,500,500,200,200,50,100,50,100,50,500,50,500,100,50,100,200,100,200,50,100,100,100,50,50,200,500,50,500,200,200,500,50,100,50,50,500,500,200,50,200,100,100,500,500,100,500,200,500,100,500,50,200,200,500,100,500,50,500,100,500,50,500,500,100,200,200,100,200,100,50,500,100,500,200,500"
# Node 4 random conversational traffic
dtnsim.node[4].app.enable = true
dtnsim.node[4].app.bundlesNumber = "2,2,5,5,1,4,4,3,5,1,5,4,1,1,3,2,3,4,3,3,3,1,4,2,1,2,5,5,3,4,1,3,5,3,5,5,1,2,5,5,2,3,1,3,3,3,1,1,3,5,5,4,4,2,4,5,1,3,5,1,5,2,5,4,3,3,1,2,5,3,4,1,2,3,1,4,5,4,2,4,5,1,3,1,1,3,2,2,4,1,3,1,2,4,4,2,3,1,5,5"
dtnsim.node[4].app.start = "99,47,31,93,76,17,64,35,40,48,89,12,72,73,47,96,95,5,39,84,80,99,24,52,98,96,21,24,49,30,32,46,47,22,27,100,63,59,76,65,35,80,17,51,53,99,56,21,54,90,13,82,31,14,95,10,47,94,76,88,60,89,3,28,22,22,93,97,35,80,45,98,84,53,28,67,21,36,71,16,48,47,95,41,96,17,87,54,25,100,98,87,3,82,81,81,77,9,51,18"
dtnsim.node[4].app.destinationEid = "3,3,3,3,3,3,3,3,3,3,3,3,3,3,3,3,3,3,3,3,3,3,3,3,3,3,3,3,3,3,3,3,3,3,3,3,3,3,3,3,3,3,3,3,3,3,3,3,3,3,3,3,5,5,5,5,5,5,5,5,5,5,5,5,5,5,5,5,5,5,5,5,5,5,5,5,5,5,5,5,5,5,5,5,5,5,5,5,5,5,5,5,5,5,5,5,5,5,5,5"
dtnsim.node[4].app.size = "100,200,100,500,100,500,100,50,200,500,500,200,200,200,100,200,100,50,50,500,50,50,100,500,100,50,200,200,200,500,100,200,100,100,100,200,200,50,500,100,200,200,50,200,200,50,500,200,100,200,500,200,50,200,200,500,50,500,200,100,500,500,100,500,200,500,100,100,50,100,100,500,500,50,500,200,500,50,500,200,50,500,200,50,200,50,500,500,500,500,200,500,200,500,200,100,200,100,50,50"
# Node 5 random conversational traffic
dtnsim.node[5].app.enable = true
dtnsim.node[5].app.bundlesNumber = "3,2,3,2,2,1,1,1,4,5,2,5,4,3,4,2,5,3,5,3,3,2,1,1,4,4,2,3,3,2,3,5,1,4,1,4,3,5,4,1,5,4,2,3,1,3,5,2,3,3,4,4,2,2,5,3,5,1,4,4,4,3,5,4,4,1,2,2,5,4,1,5,4,3,1,5,2,1,1,4,3,1,4,2,4,1,5,1,1,1,2,3,1,3,4,3,5,5,5,1"
dtnsim.node[5].app.start = "98,15,50,96,83,61,91,33,27,31,96,100,86,90,62,35,76,21,49,52,50,27,94,61,31,100,100,91,10,90,87,11,60,5,45,14,34,97,77,23,57,67,17,10,62,3,24,30,95,86,85,88,78,9,85,44,66,82,59,33,75,64,72,22,28,33,11,100,98,38,81,18,65,25,75,4,21,75,32,9,15,20,53,43,17,45,48,47,43,12,31,16,23,31,36,74,67,45,86,31"
dtnsim.node[5].app.destinationEid = "4,4,4,4,4,4,4,4,4,4,4,4,4,4,4,4,4,4,4,4,4,4,4,4,4,4,4,4,4,4,4,4,4,6,6,6,6,6,6,6,6,6,6,6,6,6,6,6,6,6,6,6,6,6,6,6,6,6,6,6,6,6,6,6,6,6,6,6,6,6,6,6,6,6,6,6,6,6,6,6,6,6,6,6,6,6,6,6,6,6,6,6,6,6,6,6,6,6,6,6"
dtnsim.node[5].app.size = "50,500,500,200,500,50,200,200,500,100,500,200,200,50,100,50,50,100,50,500,50,50,500,200,200,50,200,100,50,500,500,200,200,500,500,500,500,100,100,200,100,200,200,50,100,200,500,500,50,200,500,50,50,500,200,500,100,50,50,100,500,500,50,200,100,500,100,200,500,500,500,200,500,200,500,100,200,200,50,100,500,100,100,50,500,500,100,100,200,50,100,100,500,200,50,50,100,500,50,500"
# Node 6 random conversational traffic
dtnsim.node[6].app.enable = true
dtnsim.node[6].app.bundlesNumber = "5,2,4,4,4,3,3,2,3,3,4,4,2,3,3,2,1,2,1,4,1,2,2,3,3,4,4,1,4,2,1,2,4,5,1,2,1,1,2,2,5,5,1,4,2,2,1,2,5,5,4,1,3,2,5,5,4,3,1,1,1,5,1,2,2,1,4,4,2,3,4,1,4,2,2,2,4,5,3,5,2,1,1,2,5,1,4,2,4,5,3,1,4,3,3,3,4,2,2,4"
dtnsim.node[6].app.start = "12,44,98,68,26,11,65,5,34,89,86,87,12,93,46,67,90,77,68,77,21,88,19,67,32,84,11,38,12,16,60,51,21,49,52,52,40,32,38,81,39,78,41,91,42,84,88,14,90,60,1,29,41,60,85,97,3,80,14,86,99,22,56,80,61,26,55,86,10,87,33,14,57,49,90,94,11,76,45,84,27,2,25,48,33,39,6,78,78,29,24,63,60,94,11,98,82,32,26,93"
dtnsim.node[6].app.destinationEid = "5,5,5,5,5,5,5,5,5,5,5,5,5,5,5,5,5,5,5,5,5,5,5,5,5,5,5,5,5,5,5,5,5,5,5,5,5,5,5,5,5,7,7,7,7,7,7,7,7,7,7,7,7,7,7,7,7,7,7,7,7,7,7,7,7,7,7,7,7,7,7,7,7,7,7,7,7,7,7,7,7,7,7,7,7,7,7,7,7,7,7,7,7,7,7,7,7,7,7,7"
dtnsim.node[6].app.size = "100,200,50,100,100,100,50,50,100,200,100,200,500,200,500,50,200,100,50,50,100,100,100,200,200,50,200,100,100,500,200,50,100,500,100,200,50,200,500,200,500,200,100,200,50,500,200,200,200,200,50,200,100,100,200,50,100,200,50,50,500,500,50,100,50,500,500,100,100,500,200,200,50,500,500,500,200,500,100,200,500,50,100,500,100,50,200,200,500,200,200,50,500,200,200,50,100,200,50,200"
# Node 7 random conversational traffic
dtnsim.node[7].app.enable = true
dtnsim.node[7].app.bundlesNumber = "2,4,2,5,3,5,4,3,5,4,2,2,1,1,3,5,1,5,3,3,3,2,2,4,1,2,1,1,2,2,4,3,3,1,2,1,4,1,4,5,2,3,1,1,1,2,4,2,3,1,2,3,5,4,4,5,4,1,4,1,5,2,1,5,2,1,2,2,4,2,5,5,4,5,4,2,2,5,2,2,2,3,5,1,2,4,4,5,5,1,5,3,2,5,4,2,1,1,4,4"
dtnsim.node[7].app.start = "84,45,98,48,94,62,6,38,45,90,99,5,82,17,94,28,64,81,70,17,95,43,62,53,18,83,51,93,50,7,31,30,68,70,13,99,91,30,99,54,68,76,25,99,66,85,55,63,83,100,29,90,87,58,83,76,83,93,8,73,93,2,39,7,97,53,71,75,72,1,78,81,74,2,2,92,25,28,70,99,100,77,5,8,67,35,17,54,54,65,46,24,50,11,43,53,82,40,78,54"
dtnsim.node[7].app.destinationEid = "6,6,6,6,6,6,6,6,6,6,6,6,6,6,6,6,6,6,6,6,6,6,6,6,6,6,6,6,6,6,6,6,6,6,6,6,6,6,6,8,8,8,8,8,8,8,8,8,8,8,8,8,8,8,8,8,8,8,8,8,8,8,8,8,8,8,8,8,8,8,8,8,8,8,8,8,8,8,8,8,8,8,8,8,8,8,8,8,8,8,8,8,8,8,8,8,8,8,8,8"
dtnsim.node[7].app.size = "50,500,100,100,100,50,50,50,100,200,500,200,100,100,500,100,100,200,500,200,200,500,200,200,100,100,100,50,500,50,50,200,100,100,500,50,50,200,500,500,50,500,100,50,500,50,200,200,100,50,50,100,200,200,500,200,100,50,500,50,200,100,500,100,100,500,100,200,50,200,500,100,200,200,50,500,100,200,50,100,200,100,500,500,100,50,500,50,500,50,100,50,50,100,100,200,50,50,50,100"
# Node 8 random conversational traffic
dtnsim.node[8].app.enable = true
dtnsim.node[8].app.bundlesNumber = "2,2,2,5,3,1,5,2,3,4,5,2,2,4,2,5,4,5,3,3,2,3,2,2,3,5,5,4,2,1,4,2,1,1,5,2,4,5,4,3,2,3,3,3,3,5,4,1,5,3,3,4,3,3,5,3,1,3,5,5,5,1,2,3,1,2,1,5,2,2,2,5,2,3,4,1,5,3,1,5,3,2,5,1,4,5,4,2,4,2,3,4,3,4,1,3,5,4,1,3"
dtnsim.node[8].app.start = "75,80,73,59,72,90,64,81,10,98,17,98,62,73,81,81,8,82,94,37,100,16,40,59,59,68,49,58,12,89,83,94,38,82,38,60,5,22,35,47,93,64,39,75,67,69,84,55,32,20,42,62,89,11,2,83,27,89,15,79,40,15,54,64,12,98,29,8,9,70,33,19,14,68,95,55,76,34,82,76,69,73,15,42,37,89,66,69,42,86,38,96,27,30,73,51,1,71,69,23"
dtnsim.node[8].app.destinationEid = "7,7,7,7,7,7,7,7,7,7,7,7,7,7,7,7,7,7,7,7,7,7,7,7,7,7,7,7,7,7,7,9,9,9,9,9,9,9,9,9,9,9,9,9,9,9,9,9,9,9,9,9,9,9,9,9,9,9,9,9,9,9,9,9,9,9,9,9,9,9,9,9,9,9,9,9,9,9,9,9,9,9,9,9,9,9,9,9,9,9,9,9,9,9,9,9,9,9,9,9"
dtnsim.node[8].app.size = "200,200,100,100,100,500,100,50,500,500,100,500,500,50,100,50,100,50,200,50,50,50,500,50,50,100,200,100,100,100,100,500,50,50,50,100,200,200,100,100,200,50,50,500,200,500,500,200,50,200,100,100,50,200,500,50,500,200,500,50,50,50,200,50,500,200,500,200,100,500,500,50,100,500,100,500,50,500,100,500,50,100,50,50,100,200,50,100,200,200,100,200,500,50,500,500,50,50,200,100"
# Node 9 random conversational traffic
dtnsim.node[9].app.enable = true
dtnsim.node[9].app.bundlesNumber = "2,5,1,1,3,1,3,5,2,5,3,3,4,1,4,5,1,2,1,5,5,2,3,1,1,3,4,2,5,5,2,4,5,1,4,2,1,4,4,1,2,4,5,5,1,3,3,3,2,4,3,3,2,5,5,1,3,3,4,2,1,1,3,3,2,5,3,3,4,4,3,1,1,3,2,5,2,4,3,4,4,2,3,3,1,3,1,3,1,1,3,4,1,3,2,3,1,5,1,3"
dtnsim.node[9].app.start = "99,45,68,9,53,65,49,79,69,79,92,65,37,64,97,18,28,96,82,43,15,100,38,12,41,78,96,60,80,42,74,91,69,75,95,31,80,61,6,75,99,61,31,15,53,11,13,30,35,61,3,30,62,98,4,93,10,22,41,91,51,20,43,28,15,32,59,62,100,77,80,2,2,42,12,96,74,2,13,91,83,98,68,82,81,91,60,28,40,42,24,97,13,15,21,17,20,49,73,28"
dtnsim.node[9].app.destinationEid = "8,8,8,8,8,8,8,8,8,8,8,8,8,8,8,8,8,8,8,8,8,8,8,8,8,8,8,8,8,8,8,8,8,8,8,8,8,8,8,8,10,10,10,10,10,10,10,10,10,10,10,10,10,10,10,10,10,10,10,10,10,10,10,10,10,10,10,10,10,10,10,10,10,10,10,10,10,10,10,10,10,10,10,10,10,10,10,10,10,10,10,10,10,10,10,10,10,10,10,10"
dtnsim.node[9].app.size = "50,500,50,500,50,100,200,500,200,100,200,100,500,50,50,100,100,200,100,50,100,200,100,100,100,500,200,500,500,50,100,200,200,200,200,500,500,500,100,50,200,200,200,500,200,500,50,500,50,50,50,200,200,200,500,500,500,200,50,50,50,50,200,200,200,200,50,100,200,50,200,100,50,500,200,200,200,100,200,50,50,500,500,50,500,100,500,50,500,100,200,500,200,500,200,50,500,500,100,50"
# Node 10 random conversational traffic
dtnsim.node[10].app.enable = true
dtnsim.node[10].app.bundlesNumber = "1,2,1,4,4,5,2,4,2,4,4,2,4,4,2,1,2,1,3,2,1,4,1,2,3,5,2,2,4,3,5,2,4,2,3,3,3,4,4,1,4,1,2,1,5,3,5,3,1,5,3,2,1,2,3,5,4,2,5,2,2,5,4,2,1,4,3,3,5,2,1,3,5,4,3,3,1,1,5,1,4,3,3,2,1,3,1,4,3,4,5,4,3,3,2,4,2,1,3,4"
dtnsim.node[10].app.start = "66,41,20,55,21,36,45,11,97,12,23,51,96,16,41,60,67,100,85,89,4,3,13,99,97,93,99,74,90,82,92,63,99,17,21,27,50,33,38,25,54,90,83,88,40,7,29,91,29,46,55,83,88,63,77,69,51,16,1,51,4,57,17,66,93,46,22,48,76,2,13,28,44,62,37,17,9,11,71,71,66,80,1,77,93,36,16,59,59,94,31,26,14,97,87,73,18,9,60,13"
dtnsim.node[10].app.destinationEid = "9,9,9,9,9,9,9,9,9,9,9,9,9,9,9,9,9,9,9,9,9,9,9,9,9,9,9,9,9,9,9,9,9,9,9,9,9,11,11,11,11,11,11,11,11,11,11,11,11,11,11,11,11,11,11,11,11,11,11,11,11,11,11,11,11,11,11,11,11,11,11,11,11,11,11,11,11,11,11,11,11,11,11,11,11,11,11,11,11,11,11,11,11,11,11,11,11,11,11,11"
dtnsim.node[10].app.size = "200,50,500,50,200,500,100,100,200,50,50,200,500,100,100,100,100,100,50,100,100,100,100,200,100,100,50,50,100,200,100,100,100,50,200,50,100,50,200,50,500,100,500,100,200,500,500,200,100,500,500,200,100,50,100,200,50,200,500,500,200,200,200,50,500,500,50,500,500,500,100,100,50,50,50,50,100,500,500,200,100,200,500,500,200,50,200,50,100,100,50,500,200,200,100,500,50,200,500,100"
# Node 11 random conversational traffic
dtnsim.node[11].app.enable = true
dtnsim.node[11].app.bundlesNumber = "3,4,5,2,4,1,3,5,2,1,3,3,1,1,4,4,2,2,2,4,2,3,4,3,5,1,1,3,5,1,1,1,5,1,4,4,5,4,1,3,5,3,5,4,4,5,1,3,3,4,4,5,3,4,1,3,4,5,1,3,4,1,1,5,5,4,1,4,1,3,4,3,1,2,4,1,3,2,3,1,5,1,1,2,3,2,2,5,4,5,1,2,1,1,1,2,2,3,5,3"
dtnsim.node[11].app.start = "33,86,97,45,14,38,93,33,47,65,86,97,72,9,23,69,54,85,9,15,34,45,22,19,80,87,81,95,25,61,69,97,35,32,15,100,95,14,66,21,58,89,66,35,62,79,72,79,50,53,73,92,10,51,6,20,31,36,97,75,17,93,76,2,24,98,64,5,40,15,94,62,75,45,43,41,2,95,84,31,81,99,95,89,100,61,65,19,57,25,45,92,28,65,100,12,63,19,86,70"
dtnsim.node[11].app.destinationEid = "10,10,10,10,10,10,10,10,10,10,10,10,10,10,10,10,10,10,10,10,10,10,10,10,10,10,10,10,10,10,10,10,10,10,10,10,10,10,10,10,12,12,12,12,12,12,12,12,12,12,12,12,12,12,12,12,12,12,12,12,12,12,12,12,12,12,12,12,12,12,12,12,12,12,12,12,12,12,12,12,12,12,12,12,12,12,12,12,12,12,12,12,12,12,12,12,12,12,12,12"
dtnsim.node[11].app.size = "50,500,500,50,200,50,500,500,50,500,200,500,100,500,50,50,100,200,200,500,500,100,100,50,200,500,50,100,100,500,500,50,100,50,50,100,500,200,100,50,100,50,100,100,200,100,50,500,50,200,500,50,200,100,200,100,50,200,200,50,500,200,50,200,100,50,100,100,100,500,50,500,100,200,200,200,50,500,100,100,50,500,200,100,500,50,50,50,50,50,200,100,50,50,100,50,50,500,50,100"
# Node 12 random conversational traffic
dtnsim.node[12].app.enable = true
dtnsim.node[12].app.bundlesNumber = "4,4,5,2,4,3,4,2,5,1,2,2,1,3,4,2,4,2,5,3,1,4,1,4,2,3,4,4,2,2,5,3,1,1,2,5,4,1,2,5,3,1,1,4,3,2,5,1,2,4,3,5,4,3,4,2,5,1,5,4,2,1,5,3,4,4,1,4,2,2,5,2,1,3,3,2,3,4,2,5,3,5,5,2,2,2,4,1,4,5,1,1,5,4,5,5,1,3,3,2"
dtnsim.node[12].app.start = "59,93,71,38,81,55,62,93,56,25,37,46,100,97,79,9,25,100,41,19,97,83,52,43,10,99,91,33,85,100,92,100,63,70,63,51,96,70,100,65,80,87,78,22,40,83,9,69,49,45,5,6,25,48,76,1,98,67,58,60,52,78,47,11,99,53,24,13,86,72,59,30,38,97,84,47,92,95,74,18,57,2,24,100,71,62,85,30,4,30,29,31,41,9,11,22,94,14,50,28"
dtnsim.node[12].app.destinationEid = "11,11,11,11,11,11,11,11,11,11,11,11,11,11,11,11,11,11,11,11,11,11,11,11,11,11,11,11,11,11,11,11,11,11,11,11,11,11,11,11,11,13,13,13,13,13,13,13,13,13,13,13,13,13,13,13,13,13,13,13,13,13,13,13,13,13,13,13,13,13,13,13,13,13,13,13,13,13,13,13,13,13,13,13,13,13,13,13,13,13,13,13,13,13,13,13,13,13,13,13"
dtnsim.node[12].app.size = "500,200,500,200,100,100,100,50,500,500,200,200,500,100,500,200,100,200,200,100,500,500,100,100,500,50,200,100,200,500,500,200,100,100,100,500,100,50,500,500,200,200,200,200,200,100,50,100,100,50,200,100,200,50,200,100,500,200,500,50,50,100,100,500,500,100,100,50,100,500,50,500,50,500,200,500,500,200,50,200,500,50,50,500,50,50,200,50,100,50,100,500,200,200,100,200,200,200,500,50"
# Node 13 random conversational traffic
dtnsim.node[13].app.enable = true
dtnsim.node[13].app.bundlesNumber = "3,2,3,2,4,4,2,4,5,1,5,5,3,1,5,5,3,2,3,1,5,2,4,5,3,2,2,5,2,2,2,3,2,3,4,3,2,5,3,5,2,1,4,5,2,1,3,1,4,1,2,3,5,1,1,2,5,2,3,5,4,5,2,4,1,1,2,4,3,4,2,4,3,5,5,4,1,1,4,3,2,5,3,5,3,2,2,5,3,1,2,1,4,5,4,3,1,3,1,3"
dtnsim.node[13].app.start = "92,83,24,45,16,70,57,8,12,30,81,65,84,15,20,91,39,99,91,99,76,65,9,100,75,69,87,13,33,32,42,34,46,6,42,45,28,71,85,84,61,90,71,16,19,44,58,62,7,55,85,34,31,39,91,32,64,13,61,56,20,43,30,68,27,41,66,61,22,55,44,89,58,79,60,7,67,79,42,64,24,28,92,86,49,26,72,6,100,40,94,22,93,84,66,10,77,97,2,34"
dtnsim.node[13].app.destinationEid = "12,12,12,12,12,12,12,12,12,12,12,12,12,12,12,12,12,12,12,12,12,12,12,12,12,12,12,12,12,12,12,12,14,14,14,14,14,14,14,14,14,14,14,14,14,14,14,14,14,14,14,14,14,14,14,14,14,14,14,14,14,14,14,14,14,14,14,14,14,14,14,14,14,14,14,14,14,14,14,14,14,14,14,14,14,14,14,14,14,14,14,14,14,14,14,14,14,14,14,14"
dtnsim.node[13].app.size = "500,500,200,50,50,500,500,200,50,500,200,50,50,100,50,500,200,500,50,500,200,100,50,50,50,50,200,100,500,100,100,100,500,500,100,500,500,500,200,100,200,50,100,50,100,100,100,100,50,50,50,50,50,50,100,50,500,50,100,500,500,200,200,100,200,100,200,200,200,200,50,200,100,500,100,500,200,500,200,200,200,50,500,500,50,50,500,50,50,200,50,500,200,200,200,500,50,100,500,200"
# Node 14 random conversational traffic
dtnsim.node[14].app.enable = true
dtnsim.node[14].app.bundlesNumber = "5,5,2,3,4,2,4,2,4,3,4,5,5,5,4,2,1,4,3,5,1,1,2,4,5,5,2,4,5,1,5,1,1,2,5,5,1,4,5,2,2,2,3,1,3,2,1,4,5,3,3,4,2,1,1,3,2,1,5,1,1,4,2,1,3,2,5,2,4,1,2,4,2,4,1,3,2,2,5,3,1,1,3,2,2,1,5,3,1,4,4,4,3,4,3,3,2,4,4,4"
dtnsim.node[14].app.start = "7,46,95,91,69,78,64,14,64,43,40,92,42,65,15,68,66,49,34,72,93,70,16,86,45,68,28,94,93,27,13,100,45,100,26,95,80,99,6,48,64,63,88,81,98,88,21,9,61,48,56,85,40,89,56,49,85,34,88,6,71,24,10,33,61,36,67,99,9,9,70,57,77,98,45,80,31,67,87,40,52,33,51,16,92,90,82,94,55,65,31,80,7,73,98,93,40,59,77,45"
dtnsim.node[14].app.destinationEid = "13,13,13,13,13,13,13,13,13,13,13,13,13,13,13,13,13,13,13,13,13,13,13,13,13,13,13,13,13,13,13,13,13,13,13,13,13,13,15,15,15,15,15,15,15,15,15,15,15,15,15,15,15,15,15,15,15,15,15,15,15,15,15,15,15,15,15,15,15,15,15,15,15,15,15,15,15,15,15,15,15,15,15,15,15,15,15,15,15,15,15,15,15,15,15,15,15,15,15,15"
dtnsim.node[14].app.size = "50,50,500,500,50,100,500,100,200,200,200,50,200,500,50,200,50,50,100,200,100,100,100,200,50,100,50,100,50,500,200,100,500,100,500,100,50,100,100,200,50,500,500,50,50,200,100,500,100,100,50,100,50,100,200,200,500,100,100,500,50,100,500,500,200,200,500,500,200,200,200,50,50,200,50,100,200,200,200,500,50,100,100,200,500,200,50,200,100,500,200,200,100,500,100,200,50,100,500,50"
# Node 15 random conversational traffic
dtnsim.node[15].app.enable = true
dtnsim.node[15].app.bundlesNumber = "2,1,2,5,2,2,3,2,2,3,5,2,1,2,4,2,4,1,1,2,1,2,4,5,1,4,4,3,5,3,2,4,1,5,2,1,5,5,2,3,1,4,5,5,1,5,4,2,3,5,4,1,2,1,5,1,1,1,5,5,3,3,3,4,3,1,5,2,3,2,2,4,2,5,2,3,3,4,2,2,5,1,1,1,4,1,3,1,2,5,2,4,4,4,4,5,1,2,3,3"
dtnsim.node[15].app.start = "12,55,65,85,99,95,23,11,57,94,47,36,93,10,74,20,40,69,100,19,81,100,47,32,76,96,49,41,25,96,96,63,72,39,81,13,81,100,98,41,47,45,38,35,84,33,62,6,70,73,19,50,10,54,79,34,25,48,7,99,73,47,29,97,22,19,69,88,46,5,66,78,16,23,9,95,46,23,56,24,94,15,40,54,23,26,41,71,45,21,77,32,65,26,75,68,93,80,74,63"
dtnsim.node[15].app.destinationEid = "14,14,14,14,14,14,14,14,14,14,14,14,14,14,14,14,14,14,14,14,14,14,14,14,14,14,14,14,14,14,14,14,14,14,14,14,14,14,14,14,14,16,16,16,16,16,16,16,16,16,16,16,16,16,16,16,16,16,16,16,16,16,16,16,16,16,16,16,16,16,16,16,16,16,16,16,16,16,16,16,16,16,16,16,16,16,16,16,16,16,16,16,16,16,16,16,16,16,16,16"
dtnsim.node[15].app.size = "500,500,200,100,200,200,200,50,50,100,500,500,200,50,50,500,50,50,200,200,50,200,50,100,200,200,100,50,500,200,50,100,200,200,50,500,500,200,50,200,50,200,500,50,500,100,500,100,100,200,200,500,200,200,200,500,50,50,200,50,100,500,50,200,50,50,200,500,500,100,50,100,200,500,200,500,50,50,100,200,50,500,100,200,500,500,500,50,200,200,50,50,200,100,50,100,50,50,100,200"
# Node 16 random conversational traffic
dtnsim.node[16].app.enable = true
dtnsim.node[16].app.bundlesNumber = "1,2,5,1,5,3,4,5,5,1,5,4,5,5,4,5,1,5,4,4,1,4,3,1,2,1,3,4,1,2,4,1,1,5,2,3,3,2,1,2,2,2,2,2,5,2,2,1,3,1,2,1,4,1,2,5,1,4,2,2,5,1,2,4,5,2,1,5,4,3,2,1,5,1,5,1,2,2,5,5,4,1,3,3,1,2,2,5,4,2,5,2,2,2,2,5,2,2,4,3"
dtnsim.node[16].app.start = "39,94,37,78,81,20,54,88,41,15,100,80,31,73,92,53,15,88,26,24,17,96,52,25,57,28,21,43,55,33,46,46,24,81,33,36,70,97,55,56,36,76,27,36,29,34,66,88,60,15,61,20,69,5,38,4,97,48,23,96,50,91,9,77,99,8,57,23,93,47,55,60,59,79,43,76,6,22,2,85,75,95,84,79,43,96,99,12,40,4,71,74,18,17,45,93,97,71,73,45"
dtnsim.node[16].app.destinationEid = "15,15,15,15,15,15,15,15,15,15,15,15,15,15,15,15,15,15,15,15,15,15,15,15,15,15,15,15,15,15,15,15,15,15,15,15,15,15,17,17,17,17,17,17,17,17,17,17,17,17,17,17,17,17,17,17,17,17,17,17,17,17,17,17,17,17,17,17,17,17,17,17,17,17,17,17,17,17,17,17,17,17,17,17,17,17,17,17,17,17,17,17,17,17,17,17,17,17,17,17"
dtnsim.node[16].app.size = "100,500,50,100,500,500,200,200,500,100,100,500,200,500,100,50,500,500,50,50,500,500,50,500,100,100,100,50,500,200,200,100,200,100,500,100,50,500,200,500,50,500,100,200,100,50,100,500,200,200,100,100,100,200,100,500,200,100,500,50,100,50,500,200,50,50,200,50,100,50,100,100,500,50,500,50,50,200,200,500,100,100,50,200,100,100,100,100,200,500,50,200,50,200,50,50,200,100,100,500"
# Node 17 random conversational traffic
dtnsim.node[17].app.enable = true
dtnsim.node[17].app.bundlesNumber = "5,1,4,4,3,3,3,1,3,5,4,3,1,2,4,1,1,1,2,1,3,2,4,4,3,5,1,2,1,1,5,4,5,4,3,1,2,4,4,1,1,3,2,3,3,5,3,3,1,2,5,1,3,5,3,2,1,2,1,1,1,4,5,5,3,1,2,1,5,3,3,2,4,5,3,5,3,4,3,2,5,5,4,4,5,3,4,5,3,2,3,4,4,4,5,4,5,1,2,1"
dtnsim.node[17].app.start = "60,65,37,44,31,63,20,73,99,53,33,51,93,14,65,30,100,55,62,80,49,86,23,95,85,99,86,97,46,14,77,22,22,98,73,79,31,79,66,89,96,89,21,18,86,26,98,30,21,68,73,3,66,49,19,86,14,67,66,47,45,100,60,100,32,32,8,67,23,35,94,5,62,6,2,43,68,49,28,44,87,19,23,72,17,87,3,20,40,27,94,15,5,34,70,46,49,73,57,92"
dtnsim.node[17].app.destinationEid = "16,16,16,16,16,16,16,16,16,16,16,16,16,16,16,16,16,16,16,16,16,16,16,16,16,16,16,16,16,16,16,16,16,16,16,16,18,18,18,18,18,18,18,18,18,18,18,18,18,18,18,18,18,18,18,18,18,18,18,18,18,18,18,18,18,18,18,18,18,18,18,18,18,18,18,18,18,18,18,18,18,18,18,18,18,18,18,18,18,18,18,18,18,18,18,18,18,18,18,18"
dtnsim.node[17].app.size = "50,100,500,50,500,50,200,500,200,50,100,200,100,100,200,50,500,100,100,50,100,500,500,500,500,200,50,500,200,200,50,200,50,50,100,200,500,200,200,200,100,200,100,200,500,200,50,100,50,100,200,500,200,500,500,500,200,200,200,500,100,100,50,100,500,100,200,200,50,50,200,100,50,500,100,100,100,500,100,100,500,200,100,50,500,200,500,200,500,500,500,100,200,100,500,200,200,200,500,50"
# Node 18 random conversational traffic
dtnsim.node[18].app.enable = true
dtnsim.node[18].app.bundlesNumber = "1,2,3,1,2,3,2,5,4,2,4,3,1,3,3,4,5,2,4,1,5,5,4,3,5,3,5,4,5,4,3,1,1,4,1,2,4,3,2,3,4,5,1,5,4,5,4,2,2,4,2,4,4,1,5,5,5,1,2,3,4,4,5,2,4,3,4,4,5,1,5,2,1,3,3,1,4,3,1,4,3,4,5,1,5,4,3,2,5,5,5,3,2,1,4,5,2,4,3,4"
dtnsim.node[18].app.start = "37,72,100,92,30,23,90,35,37,80,4,72,21,90,15,100,100,35,9,77,25,13,71,9,48,76,58,37,52,29,75,24,42,35,98,18,42,80,56,80,68,10,63,46,44,40,6,8,86,66,49,25,36,28,33,13,61,89,14,8,60,88,83,81,33,7,4,75,74,80,28,56,87,13,89,8,100,79,100,18,65,49,98,25,10,7,57,92,82,21,51,48,24,23,11,18,26,76,61,29"
dtnsim.node[18].app.destinationEid = "17,17,17,17,17,17,17,17,17,17,17,17,17,17,17,17,17,17,17,17,17,17,17,17,17,17,17,17,17,17,17,17,17,17,17,17,17,17,17,19,19,19,19,19,19,19,19,19,19,19,19,19,19,19,19,19,19,19,19,19,19,19,19,19,19,19,19,19,19,19,19,19,19,19,19,19,19,19,19,19,19,19,19,19,19,19,19,19,19,19,19,19,19,19,19,19,19,19,19,19"
dtnsim.node[18].app.size = "500,500,200,500,200,50,200,50,200,200,100,200,500,500,50,100,200,50,500,500,200,100,200,500,500,100,50,500,200,500,500,50,100,50,100,500,100,50,200,50,200,200,100,500,500,100,200,500,200,500,500,500,500,500,100,100,500,50,200,500,500,200,500,200,100,200,500,100,500,100,500,50,500,200,500,500,500,200,200,200,500,500,50,500,200,100,500,100,200,200,500,100,200,100,200,100,200,100,100,50"
# Node 19 random conversational traffic
dtnsim.node[19].app.enable = true
dtnsim.node[19].app.bundlesNumber = "5,5,3,4,4,2,2,5,4,2,5,4,5,1,1,2,1,4,4,1,5,5,2,3,3,5,1,4,5,5,1,3,4,3,2,5,1,5,1,2,4,4,4,1,2,5,3,1,2,1,3,5,4,2,4,2,4,5,1,1,4,3,5,5,2,2,5,2,5,2,3,5,5,1,5,4,5,1,2,2,2,4,5,1,4,2,5,4,5,4,1,3,1,1,1,3,5,4,1,2"
dtnsim.node[19].app.start = "76,71,55,54,49,11,69,56,45,16,96,20,16,65,95,92,35,92,82,26,67,100,30,15,64,60,32,30,32,84,69,39,99,73,7,66,98,9,63,23,24,79,24,56,24,30,84,71,66,21,82,43,6,39,64,43,59,12,20,20,22,28,23,54,13,52,42,53,50,5,8,47,16,95,82,99,7,64,29,90,5,15,94,90,45,2,19,84,24,81,81,13,94,16,43,67,86,98,86,21"
dtnsim.node[19].app.destinationEid = "18,18,18,18,18,18,18,18,18,18,18,18,18,18,18,18,18,18,18,18,18,18,18,18,18,18,18,18,18,18,18,18,20,20,20,20,20,20,20,20,20,20,20,20,20,20,20,20,20,20,20,20,20,20,20,20,20,20,20,20,20,20,20,20,20,20,20,20,20,20,20,20,20,20,20,20,20,20,20,20,20,20,20,20,20,20,20,20,20,20,20,20,20,20,20,20,20,20,20,20"
dtnsim.node[19].app.size = "50,200,50,100,50,200,50,200,200,100,200,50,100,100,500,50,50,50,100,100,500,200,500,50,50,50,500,100,100,100,50,100,50,50,100,100,50,50,200,500,200,100,200,500,500,50,50,50,200,500,200,200,500,50,50,500,200,50,500,500,200,200,200,50,200,100,500,100,50,50,100,100,200,100,100,500,50,100,500,200,100,200,100,50,500,200,50,200,200,200,100,100,50,100,500,100,200,200,200,50"
# Node 20 random conversational traffic
dtnsim.node[20].app.enable = true
dtnsim.node[20].app.bundlesNumber = "2,4,2,3,1,2,3,1,4,1,2,5,3,1,5,3,1,5,3,2,1,2,5,3,3,3,2,2,5,2,1,1,5,4,5,5,5,3,2,2,2,1,1,1,4,5,4,5,1,5,4,1,2,2,2,4,4,4,5,5,5,4,5,2,5,5,5,2,2,4,2,2,4,1,5,3,1,3,1,2,5,2,1,5,1,5,4,5,1,5,5,3,5,2,5,5,4,1,4,1"
dtnsim.node[20].app.start = "100,13,72,100,19,66,59,32,90,81,68,23,52,50,66,14,25,35,24,56,21,59,52,60,12,17,57,100,100,12,73,13,17,96,100,49,90,88,16,97,21,69,90,90,66,39,11,29,27,84,77,1,30,84,65,44,42,83,63,51,90,70,70,75,94,32,84,46,6,42,46,86,70,54,91,19,8,26,85,73,100,10,29,3,5,35,78,30,89,19,99,80,6,91,11,37,31,24,51,96"
dtnsim.node[20].app.destinationEid = "19,19,19,19,19,19,19,19,19,19,19,19,19,19,19,19,19,19,19,19,19,19,19,19,19,19,19,19,19,19,19,19,19,19,19,19,19,19,19,19,19,19,19,19,21,21,21,21,21,21,21,21,21,21,21,21,21,21,21,21,21,21,21,21,21,21,21,21,21,21,21,21,21,21,21,21,21,21,21,21,21,21,21,21,21,21,21,21,21,21,21,21,21,21,21,21,21,21,21,21"
dtnsim.node[20].app.size = "100,100,50,100,500,50,200,500,200,200,500,50,100,500,100,200,100,100,200,100,200,500,500,200,50,500,50,100,500,200,200,50,100,50,200,100,100,200,200,500,100,50,200,200,50,50,200,500,500,50,500,100,50,500,50,50,100,200,200,500,100,100,100,200,50,100,200,500,100,500,50,200,100,100,200,500,100,200,50,500,500,500,100,50,100,200,500,50,200,200,500,500,50,50,500,50,500,200,100,500"
# Node 21 random conversational traffic
dtnsim.node[21].app.enable = true
dtnsim.node[21].app.bundlesNumber = "4,1,1,2,2,1,3,1,1,3,1,4,4,5,1,1,2,1,5,3,3,2,3,3,3,1,2,1,1,2,4,2,4,3,5,2,5,2,5,5,1,5,3,4,3,3,5,3,3,1,1,2,5,4,3,5,3,2,2,1,2,1,5,1,4,5,1,3,5,1,1,2,3,5,4,4,3,1,5,5,5,3,4,3,3,1,5,2,5,3,5,5,3,1,4,4,2,3,3,3"
dtnsim.node[21].app.start = "75,48,17,91,79,5,68,49,84,67,72,78,97,40,91,53,44,55,63,95,15,95,78,100,12,44,87,38,92,28,99,12,43,35,54,5,71,32,9,63,56,76,72,18,28,50,25,58,43,72,49,34,89,52,21,39,82,18,70,75,35,49,99,57,92,4,38,52,44,29,5,22,23,65,86,33,94,9,93,69,78,20,33,64,25,72,96,100,31,26,68,73,58,75,13,90,49,58,87,44"
dtnsim.node[21].app.destinationEid = "20,20,20,20,20,20,20,20,20,20,20,20,20,20,20,20,20,20,20,20,20,20,20,20,20,20,20,20,20,20,20,20,20,20,20,22,22,22,22,22,22,22,22,22,22,22,22,22,22,22,22,22,22,22,22,22,22,22,22,22,22,22,22,22,22,22,22,22,22,22,22,22,22,22,22,22,22,22,22,22,22,22,22,22,22,22,22,22,22,22,22,22,22,22,22,22,22,22,22,22"
dtnsim.node[21].app.size = "200,100,500,200,100,50,200,100,200,200,200,200,500,200,50,100,500,200,200,50,100,200,100,500,50,500,200,100,100,200,200,500,50,200,50,200,50,200,100,50,500,100,100,500,500,50,100,50,100,500,50,200,200,100,500,500,500,50,50,50,50,500,100,50,500,200,200,100,500,500,50,50,100,100,500,500,100,500,50,500,500,50,50,200,500,200,50,100,50,100,500,500,200,500,100,100,200,500,100,100"
# Node 22 random conversational traffic
dtnsim.node[22].app.enable = true
dtnsim.node[22].app.bundlesNumber = "4,3,1,2,4,4,4,4,4,1,2,4,4,2,5,3,4,1,1,5,3,4,5,4,5,3,4,4,2,4,1,1,3,1,4,1,2,2,2,3,2,2,2,1,5,5,5,2,1,4,5,4,3,3,3,5,1,1,3,1,5,3,4,2,4,2,4,1,2,1,5,2,4,1,1,3,4,4,3,5,2,5,1,5,1,4,1,3,3,1,2,5,3,4,5,4,4,2,4,5"
dtnsim.node[22].app.start = "6,73,36,14,64,82,66,55,30,40,21,71,45,100,100,10,42,39,9,29,73,38,99,73,85,25,69,31,81,97,33,76,83,19,52,61,70,16,66,17,56,57,97,10,50,67,39,52,12,49,55,57,51,40,75,83,6,52,20,49,48,60,76,2,3,7,49,11,55,69,20,38,28,49,35,18,18,50,72,50,72,34,72,62,98,71,59,100,59,61,37,27,7,23,93,62,17,73,7,22"
dtnsim.node[22].app.destinationEid = "21,21,21,21,21,21,21,21,21,21,21,21,21,21,21,21,21,21,21,21,21,21,21,21,21,21,21,21,21,21,21,21,21,21,21,21,23,23,23,23,23,23,23,23,23,23,23,23,23,23,23,23,23,23,23,23,23,23,23,23,23,23,23,23,23,23,23,23,23,23,23,23,23,23,23,23,23,23,23,23,23,23,23,23,23,23,23,23,23,23,23,23,23,23,23,23,23,23,23,23"