[General]
network = src.dtnsim										
repeat = 1
allow-object-stealing-on-deletion = true

# Simulation end time
sim-time-limit = 84600s

# Nodes quantity (identifiers (EiDs) matches their index, EiD=0 is ignored)			
dtnsim.nodesNumber = 240
dtnsim.node[*].icon = "satellite"

# Nodes's failure rates
dtnsim.node[*].fault.enable = true
dtnsim.node[*].fault.meanTTF = 190s
dtnsim.node[*].fault.meanTTR = 10s

# Mobility
dtnsim.node[*].hasMobility = true
dtnsim.node[*].norad.satIndex = parentIndex()
dtnsim.node[*].norad.satName = "sat"
**.updateInterval = 20s
**.numOfSats = 240
**.satPerPlane = 12
**.altitude = 540
**.planes = 20
**.phaseOffset = 11

dtnsim.node[*].dtn.routing = "antop"
dtnsim.node[*].dtn.printRoutingDebug = true

# --- Random Traffic Configuration ---
# Node 1 random conversational traffic
dtnsim.node[1].app.enable = true
dtnsim.node[1].app.bundlesNumber = "4,1,3,4,5,2,2,4,3,3,4,4,5,2,1,2,4,2,1,3,4,1,3,4,4,2,4,1,3,1,1,3,2,5,1,5,5,5,4,2,4,1,3,5,4,3,5,3,5,4,4,1,3,5,4,1,2,3,1,2,5,1,4,2,5,3,3,4,3,2,4,2,5,3,1,3,4,2,1,1,2,5,4,4,5,2,3,4,3,5,5,5,4,2,2,1,5,3,1,2"
dtnsim.node[1].app.start = "31,35,4,21,58,72,47,3,97,21,19,39,46,52,79,2,98,25,61,63,22,79,92,94,60,33,65,96,48,16,26,4,85,21,95,96,11,41,11,28,71,17,52,23,14,1,15,30,43,55,27,8,51,21,15,94,85,8,20,94,75,38,56,32,75,30,60,14,54,14,6,20,47,74,74,58,66,49,53,79,21,17,38,24,71,49,93,8,83,58,87,27,86,10,26,54,52,3,45,59"
dtnsim.node[1].app.destinationEid = "2,2,2,2,2,2,2,2,2,2,2,2,2,2,2,2,2,2,2,2,2,2,2,2,2,2,2,2,2,2,2,2,2,2,2,2,2,2,2,2,2,2,2,2,2,2,2,2,2,2,2,2,2,2,2,2,2,2,2,2,2,2,2,2,2,2,2,2,2,2,2,2,2,2,2,2,2,2,2,2,2,2,2,2,2,2,2,2,2,2,2,2,2,2,2,2,2,2,2,2"
dtnsim.node[1].app.size = "500,200,100,200,100,200,100,500,200,100,100,100,200,500,500,200,50,500,50,100,50,500,200,500,50,200,100,100,500,500,500,500,500,200,200,100,500,500,50,200,100,500,500,50,50,50,200,500,200,100,200,500,100,200,200,200,100,500,50,500,200,100,100,100,500,100,100,50,200,200,50,100,200,200,500,50,500,100,500,50,50,500,500,50,50,50,100,500,50,200,500,100,200,500,500,500,500,50,50,200"
# Node 2 random conversational traffic
dtnsim.node[2].app.enable = true
dtnsim.node[2].app.bundlesNumber = "2,3,1,5,2,2,1,3,2,4,4,1,1,4,2,2,2,4,5,1,3,3,1,5,3,5,1,1,2,5,3,4,5,3,3,3,2,1,2,2,2,3,1,2,1,2,3,3,5,1,1,1,5,3,3,1,1,1,2,4,2,5,4,1,4,4,3,5,4,1,1,5,5,2,1,2,2,5,1,1,1,1,1,3,4,3,2,1,1,5,1,3,3,4,3,5,5,3,2,3"
dtnsim.node[2].app.start = "36,30,63,73,48,5,29,12,35,62,70,26,89,97,99,67,100,49,20,31,14,86,23,96,98,4,34,64,31,12,54,25,17,87,14,28,82,45,62,34,78,62,56,17,8,26,75,54,62,84,28,25,96,18,90,67,89,14,54,13,55,64,99,71,15,36,52,26,28,58,23,47,9,87,8,11,98,80,23,58,84,1,67,72,6,90,99,35,84,7,15,35,71,15,99,93,90,71,38,8"
dtnsim.node[2].app.destinationEid = "1,1,1,1,1,1,1,1,1,1,1,1,1,1,1,1,1,1,1,1,1,1,1,1,1,1,1,1,1,1,1,1,1,1,1,1,1,1,1,1,1,1,1,1,1,1,1,1,1,1,1,1,1,1,1,1,1,1,1,1,1,1,3,3,3,3,3,3,3,3,3,3,3,3,3,3,3,3,3,3,3,3,3,3,3,3,3,3,3,3,3,3,3,3,3,3,3,3,3,3"
dtnsim.node[2].app.size = "100,100,200,200,100,500,500,50,50,50,200,100,100,200,50,50,50,500,500,200,100,500,50,500,50,50,200,50,50,50,50,100,200,200,200,500,500,200,50,50,500,500,50,100,200,500,50,100,200,100,200,100,500,500,100,500,50,100,100,500,100,50,50,500,50,50,200,200,100,200,50,50,500,200,500,100,100,50,50,100,500,500,100,200,500,100,50,200,200,200,200,500,100,200,100,50,200,50,100,50"
# Node 3 random conversational traffic
dtnsim.node[3].app.enable = true
dtnsim.node[3].app.bundlesNumber = "1,5,3,5,1,1,4,3,3,1,2,1,1,4,4,2,3,3,4,5,5,2,5,3,4,3,3,2,1,4,3,4,5,3,3,4,3,2,2,3,5,5,4,3,3,2,2,4,4,3,3,4,1,3,3,4,4,4,4,1,5,5,5,5,4,1,5,3,3,3,2,2,1,5,1,2,4,1,5,5,4,3,5,2,1,3,1,3,1,2,4,4,5,2,4,5,1,5,4,5"
dtnsim.node[3].app.start = "100,78,40,55,32,33,65,54,12,13,31,64,91,4,72,73,95,100,41,86,17,73,100,96,92,79,48,12,4,55,4,52,76,56,61,55,95,83,69,79,10,51,17,56,82,51,62,63,77,81,38,34,31,27,82,63,45,53,51,26,45,71,77,20,45,50,79,83,51,95,63,91,4,9,45,6,51,23,23,84,17,20,53,55,49,89,30,97,69,42,38,50,98,16,93,22,59,95,29,20"
dtnsim.node[3].app.destinationEid = "2,2,2,2,2,2,2,2,2,2,2,2,2,2,2,2,2,2,2,2,2,2,2,2,2,2,2,2,4,4,4,4,4,4,4,4,4,4,4,4,4,4,4,4,4,4,4,4,4,4,4,4,4,4,4,4,4,4,4,4,4,4,4,4,4,4,4,4,4,4,4,4,4,4,4,4,4,4,4,4,4,4,4,4,4,4,4,4,4,4,4,4,4,4,4,4,4,4,4,4"
dtnsim.node[3].app.size = "200,100,500,50,200,200,100,200,100,200,200,50,200,500,100,500,100,100,500,100,500,50,500,100,50,100,100,500,200,500,500,50,50,100,500,100,200,500,500,500,50,50,500,50,100,100,100,50,50,500,500,50,500,100,50,50,100,200,200,50,100,200,100,500,50,500,500,500,50,50,50,50,100,200,50,200,200,100,500,200,100,200,100,100,500,100,50,500,100,200,50,100,500,200,200,100,500,50,200,100"
# Node 4 random conversational traffic
dtnsim.node[4].app.enable = true
dtnsim.node[4].app.bundlesNumber = "3,4,2,2,3,4,1,4,5,5,4,1,3,4,4,4,2,1,1,2,3,4,2,2,3,1,1,3,3,3,1,1,4,5,3,3,1,5,3,1,1,5,4,5,2,5,1,3,1,2,5,5,1,4,2,2,5,3,4,1,1,1,2,3,1,2,5,2,1,1,3,2,5,5,1,3,3,4,3,5,4,4,4,4,2,2,3,1,1,3,4,5,1,4,2,5,5,2,1,2"
dtnsim.node[4].app.start = "6,59,61,65,65,61,98,89,88,17,54,25,83,53,71,81,43,42,36,28,47,53,33,49,72,85,90,52,96,70,19,54,57,28,86,21,54,97,37,98,42,19,27,68,99,37,100,36,32,47,51,92,90,2,64,78,14,12,96,32,86,18,1,64,7,88,98,58,77,6,9,14,73,76,47,98,69,68,94,78,33,57,24,74,99,70,45,67,67,16,36,48,26,9,87,61,81,78,59,54"
dtnsim.node[4].app.destinationEid = "3,3,3,3,3,3,3,3,3,3,3,3,3,3,3,3,3,3,3,3,3,3,3,3,3,3,3,3,3,3,3,3,3,3,3,3,3,3,3,3,3,3,3,3,3,3,5,5,5,5,5,5,5,5,5,5,5,5,5,5,5,5,5,5,5,5,5,5,5,5,5,5,5,5,5,5,5,5,5,5,5,5,5,5,5,5,5,5,5,5,5,5,5,5,5,5,5,5,5,5"
dtnsim.node[4].app.size = "200,200,50,200,50,100,50,200,50,200,50,100,50,500,500,500,50,50,100,50,50,50,200,500,50,500,100,200,200,100,100,50,500,100,500,100,500,100,50,100,500,500,500,200,200,200,500,100,200,500,100,100,100,100,200,500,50,200,500,500,50,50,100,200,200,500,500,200,100,500,500,200,500,50,200,500,500,200,100,50,500,50,50,100,100,500,100,100,100,500,200,50,500,500,100,500,200,100,100,200"
# Node 5 random conversational traffic
dtnsim.node[5].app.enable = true
dtnsim.node[5].app.bundlesNumber = "5,3,4,4,1,3,1,4,5,5,4,5,4,1,2,3,3,1,4,2,2,4,4,1,2,4,3,5,3,3,4,5,3,5,2,1,1,2,1,3,1,4,5,3,5,5,5,4,2,1,4,5,4,2,1,4,3,5,4,3,3,3,2,1,5,5,4,4,4,3,3,3,4,3,4,4,3,4,5,2,5,5,1,1,4,3,3,2,5,5,2,4,1,3,4,1,1,2,3,3"
dtnsim.node[5].app.start = "46,35,53,60,99,71,97,96,69,10,97,63,87,10,18,55,100,77,76,42,77,100,80,49,75,73,21,46,57,63,84,85,67,58,29,49,36,42,14,15,47,43,6,13,21,26,25,53,49,74,9,59,63,13,92,44,82,89,57,24,26,59,65,30,67,7,4,74,58,91,33,9,71,13,58,20,48,75,62,57,96,60,22,86,69,35,99,87,92,56,8,74,32,95,11,38,85,70,96,29"
dtnsim.node[5].app.destinationEid = "4,4,4,4,4,4,4,4,4,4,4,4,4,4,4,4,4,4,4,4,4,4,4,4,4,4,4,4,4,4,4,4,4,4,6,6,6,6,6,6,6,6,6,6,6,6,6,6,6,6,6,6,6,6,6,6,6,6,6,6,6,6,6,6,6,6,6,6,6,6,6,6,6,6,6,6,6,6,6,6,6,6,6,6,6,6,6,6,6,6,6,6,6,6,6,6,6,6,6,6"
dtnsim.node[5].app.size = "100,100,50,50,100,100,100,500,50,500,200,200,500,100,100,50,50,500,50,100,100,100,50,50,200,100,200,50,500,50,50,200,50,500,50,50,500,500,200,200,500,500,100,500,500,50,50,200,50,50,50,100,500,50,50,500,500,500,200,500,200,50,200,50,100,200,50,200,50,500,100,500,100,500,200,500,100,500,50,500,200,200,100,200,200,100,100,100,50,500,100,200,100,500,500,100,50,50,500,200"
# Node 6 random conversational traffic
dtnsim.node[6].app.enable = true
dtnsim.node[6].app.bundlesNumber = "2,4,5,3,1,2,5,5,3,4,3,2,2,2,1,2,4,3,3,1,4,2,4,1,3,4,5,5,4,2,2,2,1,2,1,4,1,4,1,1,4,2,3,3,3,1,5,3,1,2,2,5,4,5,5,3,5,4,1,3,2,3,1,4,2,4,3,4,1,1,5,3,2,1,5,4,5,4,2,3,3,3,3,3,5,3,2,1,3,4,4,1,1,5,5,4,2,4,2,3"
dtnsim.node[6].app.start = "35,57,18,52,50,21,24,32,27,54,63,16,98,32,35,69,71,36,13,5,77,62,34,19,62,28,64,95,76,44,100,94,12,76,41,14,88,99,99,49,47,54,88,38,51,93,79,50,1,81,75,24,81,26,87,34,89,47,3,12,14,55,42,6,71,99,37,38,24,84,81,19,7,7,99,32,89,67,78,42,95,90,39,37,70,65,15,39,69,47,15,71,92,66,22,99,69,55,42,25"
dtnsim.node[6].app.destinationEid = "5,5,5,5,5,5,5,5,5,5,5,5,5,5,5,5,5,5,5,5,5,5,5,5,5,5,5,5,5,5,5,5,5,5,5,5,5,5,7,7,7,7,7,7,7,7,7,7,7,7,7,7,7,7,7,7,7,7,7,7,7,7,7,7,7,7,7,7,7,7,7,7,7,7,7,7,7,7,7,7,7,7,7,7,7,7,7,7,7,7,7,7,7,7,7,7,7,7,7,7"
dtnsim.node[6].app.size = "500,500,100,500,100,100,200,200,200,200,200,200,100,50,200,100,200,50,100,200,200,500,500,50,500,500,100,50,200,500,100,200,50,500,200,200,100,100,100,500,200,100,500,50,500,200,500,50,500,200,500,200,500,200,200,50,100,200,100,500,200,200,100,200,500,50,500,100,100,500,50,200,100,200,500,200,200,50,100,50,500,50,50,100,200,200,200,100,50,500,200,100,50,500,50,50,50,200,100,200"
# Node 7 random conversational traffic
dtnsim.node[7].app.enable = true
dtnsim.node[7].app.bundlesNumber = "1,1,1,3,5,2,3,3,3,3,1,1,3,4,1,2,5,2,3,3,5,4,3,4,3,1,3,5,3,5,5,4,4,3,3,5,4,4,5,5,4,2,4,5,2,5,1,5,2,4,3,1,2,1,3,5,5,1,5,3,2,5,5,4,4,2,4,4,5,1,5,3,1,3,1,3,4,1,1,2,2,2,3,3,4,1,3,5,1,4,5,1,3,1,1,2,5,1,5,3"
dtnsim.node[7].app.start = "49,39,54,87,10,89,78,31,37,50,17,56,52,9,81,100,39,33,89,89,25,14,100,36,91,73,87,98,99,78,67,43,57,75,100,68,23,100,48,32,73,63,5,84,58,53,50,56,49,64,52,33,86,94,23,65,30,43,93,33,62,89,98,95,22,98,29,15,13,9,44,3,26,10,75,56,93,3,23,94,25,34,70,96,4,27,18,20,21,2,36,79,87,71,48,15,94,29,50,11"
dtnsim.node[7].app.destinationEid = "6,6,6,6,6,6,6,6,6,6,6,6,6,6,6,6,6,6,6,6,6,6,6,6,6,6,6,6,6,6,6,6,6,6,6,6,6,6,6,6,8,8,8,8,8,8,8,8,8,8,8,8,8,8,8,8,8,8,8,8,8,8,8,8,8,8,8,8,8,8,8,8,8,8,8,8,8,8,8,8,8,8,8,8,8,8,8,8,8,8,8,8,8,8,8,8,8,8,8,8"
dtnsim.node[7].app.size = "50,50,100,50,200,100,100,500,100,200,100,50,500,50,50,500,500,200,200,500,100,50,500,200,200,500,500,100,100,200,100,50,100,200,200,100,50,500,200,50,500,500,200,50,200,500,500,50,100,50,500,500,500,50,500,100,200,50,500,200,500,500,500,50,200,100,200,100,500,200,200,100,100,500,500,500,50,50,500,50,50,200,200,100,50,200,200,50,100,100,500,100,200,500,500,200,50,500,100,50"
# Node 8 random conversational traffic
dtnsim.node[8].app.enable = true
dtnsim.node[8].app.bundlesNumber = "4,2,2,1,4,2,2,4,2,3,1,3,2,2,2,5,3,5,5,5,4,1,4,1,3,2,1,5,4,5,5,1,3,3,2,1,2,5,5,4,3,2,3,4,2,3,4,3,3,4,5,2,1,5,4,4,3,3,3,3,5,1,2,1,5,4,1,3,2,5,1,2,4,5,1,4,3,3,3,4,4,2,3,1,3,3,5,2,4,1,1,3,5,5,2,3,4,3,2,1"
dtnsim.node[8].app.start = "79,69,14,94,61,63,57,66,56,43,94,66,31,95,38,63,100,29,18,17,54,9,28,13,24,33,38,74,100,5,35,22,21,6,46,92,77,24,54,86,80,12,51,98,64,52,18,13,93,93,86,22,82,54,18,46,78,27,85,91,14,51,13,78,6,52,21,88,36,51,69,15,3,91,94,45,23,96,23,84,30,7,88,93,60,76,83,44,29,21,15,43,81,19,45,57,58,14,83,7"
dtnsim.node[8].app.destinationEid = "7,7,7,7,7,7,7,7,7,7,7,7,7,7,7,7,7,7,7,7,7,7,7,7,7,7,7,7,7,7,7,7,7,7,7,7,7,7,7,9,9,9,9,9,9,9,9,9,9,9,9,9,9,9,9,9,9,9,9,9,9,9,9,9,9,9,9,9,9,9,9,9,9,9,9,9,9,9,9,9,9,9,9,9,9,9,9,9,9,9,9,9,9,9,9,9,9,9,9,9"
dtnsim.node[8].app.size = "500,200,200,50,200,50,200,100,200,50,500,200,100,100,100,500,50,500,50,50,50,50,200,100,500,500,500,500,500,500,100,100,500,500,500,500,500,50,500,100,50,500,50,200,200,500,500,100,100,100,200,500,200,100,100,100,100,200,200,100,500,100,100,100,500,500,200,500,500,200,200,200,500,100,50,50,100,200,200,100,200,50,50,200,50,200,500,200,500,500,500,500,500,500,500,100,500,200,100,50"
# Node 9 random conversational traffic
dtnsim.node[9].app.enable = true
dtnsim.node[9].app.bundlesNumber = "4,5,3,5,5,4,1,5,1,5,3,5,2,3,4,5,4,2,5,1,5,3,3,3,3,5,5,1,5,3,1,4,3,4,5,5,4,2,2,3,4,3,5,4,4,1,4,4,3,3,1,4,2,3,5,5,5,5,3,2,2,4,4,4,5,3,3,5,5,5,4,5,1,5,3,5,5,3,2,1,3,1,2,4,4,1,2,5,3,4,1,3,1,5,1,3,2,1,4,2"
dtnsim.node[9].app.start = "89,68,58,21,19,99,89,25,90,64,55,29,96,61,81,60,22,60,72,100,96,28,24,35,10,47,32,19,24,67,21,87,13,99,79,86,23,40,24,3,57,91,33,27,10,39,71,52,8,30,69,86,12,82,84,10,10,6,46,36,68,29,63,9,62,74,72,56,28,73,7,38,77,49,23,10,55,8,30,93,93,82,56,82,70,77,49,20,20,30,53,60,43,19,7,2,60,13,97,86"
dtnsim.node[9].app.destinationEid = "8,8,8,8,8,8,8,8,8,8,8,8,8,8,8,8,8,8,8,8,8,8,8,8,8,8,8,8,8,8,8,8,8,10,10,10,10,10,10,10,10,10,10,10,10,10,10,10,10,10,10,10,10,10,10,10,10,10,10,10,10,10,10,10,10,10,10,10,10,10,10,10,10,10,10,10,10,10,10,10,10,10,10,10,10,10,10,10,10,10,10,10,10,10,10,10,10,10,10,10"
dtnsim.node[9].app.size = "50,50,500,500,500,100,100,50,100,500,500,200,100,100,50,200,100,50,200,500,50,500,200,100,100,50,200,500,100,500,500,100,500,100,200,50,200,50,50,200,500,200,50,50,100,100,100,50,100,100,500,200,500,100,200,100,100,100,200,100,500,200,50,50,100,200,500,500,200,50,500,200,100,50,500,100,50,500,100,200,500,200,50,500,500,100,50,200,500,200,100,500,200,500,200,200,500,200,50,200"
# Node 10 random conversational traffic
dtnsim.node[10].app.enable = true
dtnsim.node[10].app.bundlesNumber = "3,3,4,2,2,2,5,3,4,4,1,2,5,1,5,3,2,4,1,5,2,4,3,5,3,1,2,1,1,1,2,5,5,5,2,1,5,2,5,3,5,4,5,3,5,2,4,1,4,2,1,1,5,1,1,5,2,4,3,3,1,4,3,4,4,3,1,1,2,2,5,2,1,4,1,1,5,1,4,2,1,2,4,4,3,2,4,2,4,2,2,1,1,2,5,4,2,1,4,1"
dtnsim.node[10].app.start = "100,84,42,27,5,95,34,11,49,72,93,16,86,92,17,7,44,73,30,71,67,81,57,74,87,26,59,100,98,65,85,24,39,55,70,48,16,4,17,37,96,64,52,41,85,60,73,75,58,86,94,33,57,98,13,3,4,51,97,18,77,66,28,60,27,38,49,93,7,63,5,14,47,74,2,89,27,70,57,90,75,71,32,88,4,18,93,93,14,69,53,55,13,79,90,28,95,89,74,87"
dtnsim.node[10].app.destinationEid = "9,9,9,9,9,9,9,9,9,9,9,9,9,9,9,9,9,9,9,9,9,9,9,9,9,9,9,9,9,9,9,9,9,9,9,9,9,9,9,11,11,11,11,11,11,11,11,11,11,11,11,11,11,11,11,11,11,11,11,11,11,11,11,11,11,11,11,11,11,11,11,11,11,11,11,11,11,11,11,11,11,11,11,11,11,11,11,11,11,11,11,11,11,11,11,11,11,11,11,11"
dtnsim.node[10].app.size = "200,100,200,100,500,100,50,50,100,50,200,200,200,100,50,200,50,100,100,100,200,200,200,200,100,200,500,100,100,100,50,500,100,200,100,50,500,50,500,100,100,50,200,200,100,50,200,50,50,500,200,50,200,500,100,50,100,50,200,100,500,50,50,100,500,200,500,500,50,200,50,500,50,200,100,100,50,50,50,500,100,200,50,100,50,200,50,100,50,500,50,500,500,200,500,500,50,200,500,200"
# Node 11 random conversational traffic
dtnsim.node[11].app.enable = true
dtnsim.node[11].app.bundlesNumber = "3,5,3,5,4,5,5,2,3,4,1,1,1,5,2,1,5,5,3,2,2,3,5,5,4,5,3,4,2,5,1,2,5,2,2,4,2,4,3,4,2,3,1,3,2,2,3,1,1,5,4,2,3,1,5,2,1,3,5,1,2,4,5,4,5,2,1,2,4,1,5,1,5,4,2,1,1,5,1,1,5,5,3,3,5,3,3,1,2,4,5,3,4,3,4,3,5,1,5,5"
dtnsim.node[11].app.start = "100,62,43,70,75,77,67,58,99,14,11,52,100,86,63,52,96,11,7,15,72,93,84,78,35,95,20,96,21,56,80,100,78,68,48,67,7,70,25,93,93,8,84,66,98,74,56,77,82,1,8,94,93,16,77,65,8,8,2,69,37,25,33,92,62,9,63,80,91,61,74,43,33,91,9,17,60,37,20,27,20,91,27,68,74,2,94,2,28,23,17,5,57,73,22,61,79,72,89,9"
dtnsim.node[11].app.destinationEid = "10,10,10,10,10,10,10,10,10,10,10,10,10,10,10,10,10,10,10,10,10,10,10,10,10,10,10,10,10,10,10,10,10,12,12,12,12,12,12,12,12,12,12,12,12,12,12,12,12,12,12,12,12,12,12,12,12,12,12,12,12,12,12,12,12,12,12,12,12,12,12,12,12,12,12,12,12,12,12,12,12,12,12,12,12,12,12,12,12,12,12,12,12,12,12,12,12,12,12,12"
dtnsim.node[11].app.size = "50,50,200,100,100,200,200,500,200,200,50,100,500,200,50,100,500,500,50,100,500,200,50,50,200,500,200,200,50,200,500,500,500,500,200,200,200,500,50,50,100,200,50,200,100,500,50,100,500,500,100,100,200,100,500,100,500,200,200,500,500,100,500,200,200,500,500,500,50,50,500,100,100,50,50,50,50,200,100,50,200,500,50,200,100,50,50,500,100,500,500,100,200,50,50,50,50,200,50,200"
# Node 12 random conversational traffic
dtnsim.node[12].app.enable = true
dtnsim.node[12].app.bundlesNumber = "5,2,3,5,4,3,5,1,3,3,2,2,4,2,3,5,3,2,4,1,5,1,3,1,5,3,3,5,4,1,2,2,4,2,5,1,3,3,1,1,5,4,1,5,4,5,4,5,4,1,5,1,3,2,2,2,5,1,3,3,2,3,2,4,5,5,5,1,1,3,2,5,3,2,1,4,2,2,5,2,2,1,2,1,1,3,2,1,1,5,1,4,1,1,2,1,3,4,2,2"
dtnsim.node[12].app.start = "76,68,78,94,12,72,100,78,15,95,99,9,4,75,30,93,65,15,66,65,44,40,94,27,41,37,26,93,37,70,100,10,31,6,63,78,84,11,64,51,59,91,38,14,52,87,20,13,15,87,65,53,36,61,69,21,63,53,39,76,72,39,40,51,46,95,89,1,88,29,49,33,65,58,11,87,13,52,23,60,34,84,10,39,47,5,14,24,78,67,3,77,15,75,89,92,72,25,87,35"
dtnsim.node[12].app.destinationEid = "11,11,11,11,11,11,11,11,11,11,11,11,11,11,11,11,11,11,11,11,11,11,11,11,11,11,11,11,11,11,11,11,11,11,11,11,11,11,13,13,13,13,13,13,13,13,13,13,13,13,13,13,13,13,13,13,13,13,13,13,13,13,13,13,13,13,13,13,13,13,13,13,13,13,13,13,13,13,13,13,13,13,13,13,13,13,13,13,13,13,13,13,13,13,13,13,13,13,13,13"
dtnsim.node[12].app.size = "100,200,500,200,50,50,50,100,500,200,200,100,500,100,500,200,200,500,50,100,500,200,50,100,200,500,100,200,100,100,100,500,50,50,500,200,100,500,50,200,200,100,200,50,100,100,200,50,200,100,100,50,50,50,100,200,50,50,100,500,200,200,200,500,50,500,100,50,200,100,200,50,50,500,50,500,50,100,500,200,200,200,100,200,100,100,100,100,200,500,200,50,500,500,200,100,100,200,500,500"
# Node 13 random conversational traffic
dtnsim.node[13].app.enable = true
dtnsim.node[13].app.bundlesNumber = "2,3,2,5,3,4,1,2,2,2,4,4,4,3,4,4,3,2,4,5,5,4,2,4,2,5,2,4,1,5,5,1,1,3,5,5,1,5,5,1,2,1,5,3,5,5,4,5,3,5,2,1,1,5,4,5,1,4,2,5,3,1,2,5,4,5,1,3,4,5,3,3,4,3,1,5,2,4,4,1,4,5,4,4,5,4,5,5,2,5,3,2,1,2,2,5,3,3,5,2"
dtnsim.node[13].app.start = "66,62,95,46,18,92,19,18,60,37,79,49,56,96,5,32,40,17,23,37,20,56,19,70,85,21,80,90,73,28,41,61,90,53,83,96,53,83,71,4,64,45,24,66,78,34,98,35,88,68,65,51,22,17,98,35,18,29,1,97,43,26,24,63,54,15,69,86,23,16,67,27,16,45,27,57,40,44,14,67,61,51,79,36,52,14,37,80,14,44,55,92,91,55,78,72,60,97,71,23"
dtnsim.node[13].app.destinationEid = "12,12,12,12,12,12,12,12,12,12,12,12,12,12,12,12,12,12,12,12,12,12,12,12,12,12,12,12,12,12,12,14,14,14,14,14,14,14,14,14,14,14,14,14,14,14,14,14,14,14,14,14,14,14,14,14,14,14,14,14,14,14,14,14,14,14,14,14,14,14,14,14,14,14,14,14,14,14,14,14,14,14,14,14,14,14,14,14,14,14,14,14,14,14,14,14,14,14,14,14"
dtnsim.node[13].app.size = "200,500,100,200,500,50,500,100,200,200,100,50,200,200,50,500,100,500,100,100,500,200,50,500,100,100,50,500,500,500,200,200,50,100,500,200,500,100,100,50,200,50,200,50,500,100,200,100,500,200,50,100,100,50,200,50,50,500,50,500,50,100,500,500,50,100,50,100,100,50,50,50,500,50,50,200,200,100,500,100,200,200,100,100,50,50,200,100,100,500,500,100,200,50,50,500,200,500,500,200"
# Node 14 random conversational traffic
dtnsim.node[14].app.enable = true
dtnsim.node[14].app.bundlesNumber = "3,5,5,2,3,1,1,5,1,3,5,4,3,5,5,3,4,1,3,3,4,4,4,5,3,5,1,3,1,1,1,2,3,1,3,5,5,1,2,3,5,4,3,2,4,5,2,2,1,5,1,1,1,1,4,4,4,1,4,1,1,3,1,3,3,1,2,5,5,2,2,1,3,5,2,1,5,1,3,4,3,1,2,3,5,5,5,3,4,5,1,1,5,3,5,5,5,4,4,4"
dtnsim.node[14].app.start = "99,59,91,92,5,67,55,32,69,41,99,74,58,25,21,99,42,2,44,34,31,59,73,18,77,52,35,64,45,47,65,52,80,39,57,17,95,100,56,98,80,25,78,73,36,38,61,8,77,10,63,41,68,5,45,74,9,20,96,28,99,38,89,65,96,2,76,97,69,17,12,52,89,35,32,100,42,80,31,92,9,94,63,16,11,82,15,16,47,53,58,31,90,77,61,80,27,18,52,39"
dtnsim.node[14].app.destinationEid = "13,13,13,13,13,13,13,13,13,13,13,13,13,13,13,13,13,13,13,13,13,13,13,13,13,13,13,13,13,13,13,13,13,13,13,13,13,13,13,13,13,13,15,15,15,15,15,15,15,15,15,15,15,15,15,15,15,15,15,15,15,15,15,15,15,15,15,15,15,15,15,15,15,15,15,15,15,15,15,15,15,15,15,15,15,15,15,15,15,15,15,15,15,15,15,15,15,15,15,15"
dtnsim.node[14].app.size = "100,50,100,100,500,500,100,200,100,200,100,500,100,500,500,500,200,500,500,100,100,500,500,50,100,100,100,500,500,500,500,500,200,200,100,50,500,50,100,100,200,200,100,200,50,50,50,100,100,100,100,200,500,200,500,500,100,100,50,200,500,50,100,200,100,50,50,200,50,200,500,100,500,500,500,100,50,100,100,100,50,100,50,50,200,500,100,500,50,50,200,500,100,500,100,500,50,200,500,200"
# Node 15 random conversational traffic
dtnsim.node[15].app.enable = true
dtnsim.node[15].app.bundlesNumber = "5,1,2,2,5,5,1,1,2,2,3,4,3,2,5,4,5,4,1,1,5,2,4,3,5,1,1,2,4,3,2,1,3,1,1,1,3,1,4,5,5,4,2,3,4,4,1,1,2,2,2,4,3,1,1,3,1,2,5,3,4,4,4,5,4,5,3,2,3,4,1,1,5,1,4,5,5,3,4,5,1,4,2,3,3,4,1,2,5,1,1,4,1,5,5,3,3,5,1,3"
dtnsim.node[15].app.start = "80,43,44,65,83,51,53,76,11,29,100,45,99,71,5,42,51,95,15,69,17,16,17,25,50,66,34,89,39,23,86,54,78,34,14,50,48,87,41,9,7,52,70,31,86,97,85,76,13,64,69,58,52,94,71,27,56,34,73,85,91,68,95,91,33,87,84,51,40,88,28,47,97,54,94,91,59,44,42,11,29,5,86,100,86,22,85,92,28,72,83,35,19,31,50,2,44,19,13,3"
dtnsim.node[15].app.destinationEid = "14,14,14,14,14,14,14,14,14,14,14,14,14,14,14,14,14,14,14,14,14,14,14,14,14,14,14,14,16,16,16,16,16,16,16,16,16,16,16,16,16,16,16,16,16,16,16,16,16,16,16,16,16,16,16,16,16,16,16,16,16,16,16,16,16,16,16,16,16,16,16,16,16,16,16,16,16,16,16,16,16,16,16,16,16,16,16,16,16,16,16,16,16,16,16,16,16,16,16,16"
dtnsim.node[15].app.size = "100,500,50,200,200,50,100,500,200,100,100,500,50,200,100,50,200,50,500,50,50,100,200,50,100,200,50,50,100,50,50,200,100,500,500,100,500,200,200,100,200,500,200,200,500,100,100,100,500,200,500,200,50,200,50,200,500,100,100,50,100,500,200,100,500,100,100,500,500,50,500,200,200,500,200,500,50,500,100,200,100,200,100,100,200,50,50,50,500,100,500,200,200,100,50,200,200,200,200,200"
# Node 16 random conversational traffic
dtnsim.node[16].app.enable = true
dtnsim.node[16].app.bundlesNumber = "1,1,1,4,3,1,4,2,5,4,3,5,2,4,1,1,3,3,4,5,5,3,3,2,5,5,1,5,3,1,5,4,1,2,2,2,5,1,5,1,4,5,5,4,5,2,1,3,5,5,2,1,5,3,3,2,5,5,2,1,3,4,5,2,3,4,5,5,4,5,3,4,1,5,1,5,3,1,5,2,2,5,2,2,3,2,2,2,4,5,3,1,4,4,5,2,1,2,4,4"
dtnsim.node[16].app.start = "25,88,58,86,37,20,50,90,49,8,61,73,39,87,79,22,74,60,95,64,92,74,96,94,58,89,34,98,57,98,66,52,47,10,87,100,95,32,91,22,60,11,52,26,18,4,39,89,10,71,15,12,98,2,19,49,89,1,92,88,5,54,72,57,82,42,57,30,48,94,79,29,56,59,27,19,47,78,17,65,43,38,55,69,18,78,39,68,39,95,41,60,34,47,78,45,16,32,39,54"
dtnsim.node[16].app.destinationEid = "15,15,15,15,15,15,15,15,15,15,15,15,15,15,15,15,15,15,15,15,15,15,15,15,15,15,15,15,15,15,15,15,15,15,15,15,15,15,15,15,15,15,15,15,15,15,17,17,17,17,17,17,17,17,17,17,17,17,17,17,17,17,17,17,17,17,17,17,17,17,17,17,17,17,17,17,17,17,17,17,17,17,17,17,17,17,17,17,17,17,17,17,17,17,17,17,17,17,17,17"
dtnsim.node[16].app.size = "100,100,500,200,500,50,50,100,200,50,200,500,100,100,50,50,100,200,200,200,200,100,50,50,50,500,500,200,100,200,200,100,100,500,50,500,500,100,200,50,50,500,500,500,100,200,500,50,200,100,50,50,50,200,200,200,50,500,200,200,500,500,200,50,200,50,100,50,50,200,50,500,100,200,50,50,50,50,100,100,500,100,500,200,500,200,500,50,50,50,200,500,50,500,500,100,500,200,100,100"
# Node 17 random conversational traffic
dtnsim.node[17].app.enable = true
dtnsim.node[17].app.bundlesNumber = "2,5,4,3,4,4,5,2,1,1,4,1,1,2,2,1,4,2,5,3,3,4,4,1,1,1,1,1,2,1,3,5,2,1,4,1,1,2,2,4,3,3,2,4,3,5,1,1,5,2,1,3,5,5,4,2,4,4,2,1,4,4,2,5,1,5,1,5,4,5,5,1,4,5,1,4,4,2,3,4,1,2,3,5,4,5,2,1,2,3,5,4,4,3,5,2,2,1,4,4"
dtnsim.node[17].app.start = "12,73,17,15,100,5,58,90,60,87,52,59,36,51,34,60,65,26,50,79,18,66,49,43,75,24,85,42,72,100,48,63,37,53,83,51,18,60,68,6,91,18,9,87,75,14,15,10,91,94,5,89,28,60,42,73,86,1,19,35,74,95,98,29,39,9,72,38,66,84,68,32,21,72,22,99,93,80,18,47,44,12,36,59,92,88,78,45,15,76,77,12,42,89,61,16,46,10,42,46"
dtnsim.node[17].app.destinationEid = "16,16,16,16,16,16,16,16,16,16,16,16,16,16,16,16,16,16,16,16,16,16,16,16,16,16,16,16,16,16,16,16,16,16,16,16,16,16,18,18,18,18,18,18,18,18,18,18,18,18,18,18,18,18,18,18,18,18,18,18,18,18,18,18,18,18,18,18,18,18,18,18,18,18,18,18,18,18,18,18,18,18,18,18,18,18,18,18,18,18,18,18,18,18,18,18,18,18,18,18"
dtnsim.node[17].app.size = "100,500,50,50,100,50,50,200,50,500,200,100,500,500,200,500,50,50,200,50,100,200,200,500,200,50,50,200,200,50,500,50,500,100,100,100,200,500,200,500,500,100,50,50,50,500,50,50,50,500,100,100,100,50,100,500,100,200,100,50,200,50,100,200,500,500,500,500,500,500,50,200,200,50,200,100,200,500,50,50,50,500,100,500,50,100,500,50,50,500,500,100,50,500,100,50,500,500,50,100"
# Node 18 random conversational traffic
dtnsim.node[18].app.enable = true
dtnsim.node[18].app.bundlesNumber = "5,4,1,2,2,5,2,4,3,3,5,5,1,3,4,1,1,2,4,5,3,3,3,5,2,4,4,4,1,2,4,1,3,1,4,5,4,1,5,4,5,1,5,1,1,1,5,2,4,4,2,4,3,1,1,3,3,3,5,1,3,1,2,5,3,5,5,4,5,5,4,2,1,3,1,2,2,5,2,3,2,4,1,4,4,4,4,3,4,2,4,5,5,1,4,5,5,5,2,2"
dtnsim.node[18].app.start = "7,98,21,16,18,18,97,96,10,94,38,76,20,100,78,44,90,71,28,28,19,37,67,93,98,85,79,49,24,55,16,49,87,48,43,70,2,70,72,24,94,55,15,82,31,33,37,81,44,43,43,3,8,83,9,60,98,63,45,36,38,39,69,97,52,25,32,76,79,12,8,83,97,65,8,25,19,99,15,49,21,26,84,6,47,64,60,53,71,6,71,63,66,78,98,15,15,44,54,64"
dtnsim.node[18].app.destinationEid = "17,17,17,17,17,17,17,17,17,17,17,17,17,17,17,17,17,17,17,17,17,17,17,17,17,17,17,17,17,17,17,17,19,19,19,19,19,19,19,19,19,19,19,19,19,19,19,19,19,19,19,19,19,19,19,19,19,19,19,19,19,19,19,19,19,19,19,19,19,19,19,19,19,19,19,19,19,19,19,19,19,19,19,19,19,19,19,19,19,19,19,19,19,19,19,19,19,19,19,19"
dtnsim.node[18].app.size = "50,100,500,100,50,500,100,500,50,100,50,200,200,100,500,200,200,200,500,100,100,500,50,100,200,200,200,50,50,50,500,100,500,500,50,200,100,200,500,50,50,50,100,50,500,50,200,50,200,100,500,100,100,500,50,500,500,200,200,500,100,500,500,200,200,100,500,200,100,50,200,200,100,50,50,50,200,100,50,500,200,50,500,500,100,200,500,500,500,100,50,200,200,200,50,50,500,500,100,500"
# Node 19 random conversational traffic
dtnsim.node[19].app.enable = true
dtnsim.node[19].app.bundlesNumber = "3,4,3,5,4,2,4,5,2,3,3,3,1,3,5,3,2,1,2,5,3,1,3,5,3,1,3,3,5,5,5,5,4,5,4,4,2,3,4,3,2,1,5,2,2,4,5,3,2,1,2,1,1,4,3,3,3,1,1,2,3,3,2,5,1,1,1,5,1,3,1,5,1,1,1,5,4,4,2,1,4,4,3,5,3,4,1,5,4,5,1,3,4,4,2,1,2,3,5,2"
dtnsim.node[19].app.start = "95,58,79,74,26,99,61,17,86,39,53,53,16,86,15,67,46,41,41,40,78,58,41,84,15,73,10,30,29,100,59,22,55,78,75,72,67,79,19,21,67,75,20,13,33,51,94,11,24,71,22,48,66,68,79,49,37,68,99,99,96,71,53,99,71,64,33,63,30,5,80,15,100,53,99,45,92,51,16,66,63,44,17,65,97,88,93,77,23,100,84,17,60,89,11,99,7,35,76,92"
dtnsim.node[19].app.destinationEid = "18,18,18,18,18,18,18,18,18,18,18,18,18,18,18,18,18,18,18,18,18,18,18,18,18,18,18,18,18,18,18,18,18,18,18,18,18,18,18,18,18,20,20,20,20,20,20,20,20,20,20,20,20,20,20,20,20,20,20,20,20,20,20,20,20,20,20,20,20,20,20,20,20,20,20,20,20,20,20,20,20,20,20,20,20,20,20,20,20,20,20,20,20,20,20,20,20,20,20,20"
dtnsim.node[19].app.size = "500,500,200,50,100,500,500,200,200,500,100,50,500,200,50,500,500,50,50,100,50,500,50,500,50,100,100,50,100,200,50,200,100,500,500,50,100,100,100,200,100,50,200,500,50,200,100,50,500,200,50,50,500,200,50,500,500,100,100,500,100,200,200,50,50,500,100,100,200,500,200,500,200,100,50,50,500,100,100,500,200,50,500,200,500,200,100,500,50,500,100,100,100,50,200,50,100,500,200,50"
# Node 20 random conversational traffic
dtnsim.node[20].app.enable = true
dtnsim.node[20].app.bundlesNumber = "1,5,4,4,4,5,3,2,4,3,4,4,5,4,3,2,3,3,3,2,1,4,1,1,1,4,4,1,3,3,1,5,1,5,1,4,5,4,3,5,1,2,5,1,1,5,1,4,4,4,2,3,3,2,4,4,2,3,5,1,4,3,3,2,4,2,5,4,4,5,2,2,2,4,4,3,5,3,2,2,4,3,3,5,5,3,1,3,3,4,3,4,1,4,5,2,5,4,1,5"
dtnsim.node[20].app.start = "30,18,41,56,98,28,69,82,50,47,100,60,100,75,67,38,66,31,9,84,16,100,56,52,98,54,19,70,66,47,21,98,94,32,100,87,27,96,80,48,43,87,82,99,22,98,53,48,44,86,86,89,55,6,2,1,7,40,82,71,29,29,31,48,46,22,70,7,30,39,58,55,72,63,89,86,41,43,88,51,11,36,75,70,64,89,96,19,65,67,34,71,51,96,72,41,48,52,65,68"
dtnsim.node[20].app.destinationEid = "19,19,19,19,19,19,19,19,19,19,19,19,19,19,19,19,19,19,19,19,19,19,19,19,19,19,19,19,19,19,19,19,19,19,19,19,19,19,19,21,21,21,21,21,21,21,21,21,21,21,21,21,21,21,21,21,21,21,21,21,21,21,21,21,21,21,21,21,21,21,21,21,21,21,21,21,21,21,21,21,21,21,21,21,21,21,21,21,21,21,21,21,21,21,21,21,21,21,21,21"
dtnsim.node[20].app.size = "500,500,200,200,200,200,100,50,200,500,500,50,200,100,50,500,500,100,50,50,100,200,50,500,200,100,500,50,50,500,100,50,500,100,200,50,50,200,200,50,100,200,200,100,50,50,500,50,100,100,100,50,200,50,50,500,200,100,100,200,50,500,200,500,100,50,50,100,200,200,50,100,500,100,50,100,200,100,50,100,200,200,100,500,50,50,50,50,50,500,200,50,500,50,50,500,200,50,50,500"
# Node 21 random conversational traffic
dtnsim.node[21].app.enable = true
dtnsim.node[21].app.bundlesNumber = "2,5,5,5,2,4,4,5,5,4,2,1,1,1,3,3,5,3,5,3,3,4,1,2,2,4,1,4,1,2,1,4,5,2,3,3,3,5,1,2,1,2,1,3,2,2,1,3,5,2,3,4,2,5,1,1,5,5,1,3,4,1,4,2,3,3,5,3,5,5,1,2,3,3,3,5,2,4,1,5,4,4,5,2,5,4,2,5,4,5,4,5,4,1,5,2,3,5,1,4"
dtnsim.node[21].app.start = "49,93,83,27,99,54,90,94,90,61,15,9,6,14,49,91,32,36,36,73,33,58,75,95,87,57,18,74,25,69,35,72,98,81,69,1,3,7,12,24,40,30,13,5,4,62,21,16,14,30,13,16,76,10,2,18,46,45,16,62,91,14,59,23,15,43,11,86,79,86,40,49,45,89,35,50,65,1,6,69,19,29,55,15,69,18,28,41,48,2,85,25,72,56,3,11,7,1,33,1"
dtnsim.node[21].app.destinationEid = "20,20,20,20,20,20,20,20,20,20,20,20,20,20,20,20,20,20,20,20,20,20,20,20,20,20,20,20,20,20,20,20,20,20,20,22,22,22,22,22,22,22,22,22,22,22,22,22,22,22,22,22,22,22,22,22,22,22,22,22,22,22,22,22,22,22,22,22,22,22,22,22,22,22,22,22,22,22,22,22,22,22,22,22,22,22,22,22,22,22,22,22,22,22,22,22,22,22,22,22"
dtnsim.node[21].app.size = "500,500,50,100,200,100,100,200,500,200,200,100,500,200,100,500,500,100,200,100,100,50,100,500,50,100,100,200,500,200,500,200,100,500,50,200,200,100,50,100,50,500,100,200,100,200,50,50,200,100,100,200,100,200,200,200,100,200,50,200,200,500,200,500,200,50,200,500,50,200,50,50,50,500,50,50,500,500,50,200,100,500,500,500,200,50,100,200,500,500,50,50,500,100,500,50,200,200,500,500"
# Node 22 random conversational traffic
dtnsim.node[22].app.enable = true
dtnsim.node[22].app.bundlesNumber = "2,5,3,3,5,1,5,4,5,3,5,4,4,1,3,1,1,3,3,3,3,4,1,5,5,3,4,2,2,3,5,1,2,2,1,3,4,3,3,2,2,5,5,5,2,2,2,2,3,5,5,3,1,1,1,5,1,1,5,2,3,2,4,4,5,4,3,3,3,2,3,3,2,1,1,2,5,5,4,5,3,5,4,1,1,1,5,5,2,4,5,1,5,2,4,4,2,5,5,3"
dtnsim.node[22].app.start = "13,13,44,33,20,23,21,15,20,5,47,25,65,91,82,58,53,11,73,62,22,76,25,36,51,53,95,66,11,15,12,40,40,68,4,69,9,61,88,52,74,34,26,11,34,15,46,56,24,49,72,12,97,66,41,47,97,24,16,80,32,41,75,44,12,55,97,52,17,5,13,80,37,96,57,6,45,20,8,56,28,77,32,54,28,29,48,75,30,46,77,78,37,74,12,6,66,23,10,16"
dtnsim.node[22].app.destinationEid = "21,21,21,21,21,21,21,21,21,21,21,21,21,21,21,21,21,21,21,21,21,21,21,21,21,21,21,21,21,21,21,21,23,23,23,23,23,23,23,23,23,23,23,23,23,23,23,23,23,23,23,23,23,23,23,23,23,23,23,23,23,23,23,23,23,23,23,23,23,23,23,23,23,23,23,23,23,23,23,23,23,23,23,23,23,23,23,23,23,23,23,23,23,23,23,23,23,23,23,23"