[General]
network = src.dtnsim										
repeat = 1
allow-object-stealing-on-deletion = true

# Simulation end time
sim-time-limit = 84600s

# Nodes quantity (identifiers (EiDs) matches their index, EiD=0 is ignored)			
dtnsim.nodesNumber = 180
dtnsim.node[*].icon = "satellite"

# Nodes's failure rates
dtnsim.node[*].fault.enable = true
dtnsim.node[*].fault.meanTTF = 40s
dtnsim.node[*].fault.meanTTR = 10s

# Mobility
dtnsim.node[*].hasMobility = true
dtnsim.node[*].norad.satIndex = parentIndex()
dtnsim.node[*].norad.satName = "sat"
**.updateInterval = 20s
**.numOfSats = 180
**.satPerPlane = 15
**.altitude = 540
**.planes = 12
**.phaseOffset = 7

dtnsim.node[*].dtn.routing = "antop"
dtnsim.node[*].dtn.printRoutingDebug = true

# --- Random Traffic Configuration ---
# Node 1 random conversational traffic
dtnsim.node[1].app.enable = true
dtnsim.node[1].app.bundlesNumber = "4,1,3,1,3,5,4,1,2,1,1,4,5,4,1,5,5,3,4,4,3,2,5,1,2,5,4,5,5,2,4,2,4,3,1,5,5,1,3,1,4,4,3,3,4,2,2,2,4,4,5,1,4,1,5,5,2,3,3,5,4,1,3,2,1,5,3,3,3,4,2,4,5,4,4,3,4,3,4,4,1,3,2,2,1,4,1,1,2,1,4,1,3,3,2,4,2,4,5,1"
dtnsim.node[1].app.start = "68,13,60,63,34,94,61,27,51,59,12,86,99,20,86,51,31,99,87,22,41,62,32,54,67,59,11,53,4,36,20,89,8,83,40,70,13,8,16,49,45,51,76,30,42,96,61,93,83,39,88,95,49,59,18,85,99,51,79,41,98,50,72,27,44,13,3,30,13,99,49,69,76,34,78,67,45,28,31,95,75,54,59,6,97,48,33,25,98,60,28,98,49,62,94,32,41,46,7,2"
dtnsim.node[1].app.destinationEid = "2,2,2,2,2,2,2,2,2,2,2,2,2,2,2,2,2,2,2,2,2,2,2,2,2,2,2,2,2,2,2,2,2,2,2,2,2,2,2,2,2,2,2,2,2,2,2,2,2,2,2,2,2,2,2,2,2,2,2,2,2,2,2,2,2,2,2,2,2,2,2,2,2,2,2,2,2,2,2,2,2,2,2,2,2,2,2,2,2,2,2,2,2,2,2,2,2,2,2,2"
dtnsim.node[1].app.size = "200,500,200,50,100,100,200,50,200,50,100,500,500,100,500,100,100,50,100,50,500,500,500,100,200,500,100,100,50,50,500,500,500,500,500,50,50,100,50,200,500,100,200,500,500,200,500,100,100,200,500,100,100,100,500,500,50,50,200,100,100,500,200,100,500,100,500,500,50,100,50,100,50,50,200,200,50,500,500,100,100,100,50,500,200,100,500,200,500,50,100,100,100,200,200,100,100,100,500,50"
# Node 2 random conversational traffic
dtnsim.node[2].app.enable = true
dtnsim.node[2].app.bundlesNumber = "1,5,1,5,1,3,1,5,2,5,1,3,4,4,3,1,1,5,3,2,2,2,3,3,5,1,1,2,4,1,4,5,3,5,3,3,4,4,5,3,5,4,5,5,3,3,5,2,4,5,3,5,3,4,4,4,3,1,5,1,1,2,3,5,2,5,4,4,5,2,1,1,3,5,5,3,5,1,1,3,4,4,5,3,3,5,2,2,1,3,5,4,3,2,1,3,4,3,1,1"
dtnsim.node[2].app.start = "74,44,96,32,60,87,100,30,58,97,46,66,58,68,63,55,14,23,14,93,42,24,53,60,78,47,100,94,90,47,89,52,60,25,92,100,49,52,77,29,13,100,53,73,82,88,35,33,98,84,55,68,9,51,36,26,100,62,30,99,99,34,42,11,69,37,33,83,1,88,47,59,95,51,90,25,14,2,1,18,18,81,20,94,81,14,3,73,77,64,99,50,48,58,23,76,52,88,7,30"
dtnsim.node[2].app.destinationEid = "1,1,1,1,1,1,1,1,1,1,1,1,1,1,1,1,1,1,1,1,1,1,1,1,1,1,1,1,1,1,1,1,1,1,1,1,1,1,1,1,1,1,1,1,1,1,1,1,1,1,1,1,1,1,1,1,1,1,1,1,1,1,1,1,3,3,3,3,3,3,3,3,3,3,3,3,3,3,3,3,3,3,3,3,3,3,3,3,3,3,3,3,3,3,3,3,3,3,3,3"
dtnsim.node[2].app.size = "500,200,100,100,200,50,100,200,50,100,500,100,50,500,100,200,50,500,200,200,50,50,100,500,50,200,200,200,100,500,100,100,500,100,50,50,500,50,100,500,200,50,50,100,500,100,50,100,50,100,500,200,50,200,500,200,500,100,100,500,500,50,100,100,200,200,500,50,50,50,200,200,500,500,500,500,50,50,500,100,500,500,100,200,200,50,100,200,100,500,200,100,200,100,50,500,200,500,100,500"
# Node 3 random conversational traffic
dtnsim.node[3].app.enable = true
dtnsim.node[3].app.bundlesNumber = "1,4,2,2,3,4,1,4,2,4,1,1,5,5,4,1,5,2,5,2,4,2,5,3,1,4,5,4,4,5,2,5,3,3,1,1,5,3,4,4,2,2,2,3,2,4,2,3,5,1,4,3,1,3,3,3,3,2,2,1,4,1,5,3,5,1,4,5,2,1,2,3,2,2,5,2,4,5,4,2,1,2,1,5,3,3,3,2,2,2,2,3,3,3,5,1,4,3,2,1"
dtnsim.node[3].app.start = "70,46,34,87,10,92,48,54,33,8,28,85,22,99,100,56,33,86,61,94,13,72,54,32,19,87,56,58,10,77,1,20,66,13,2,69,21,67,5,33,99,64,6,5,67,65,2,10,84,16,40,21,36,30,66,81,93,26,99,9,88,60,80,43,37,19,88,75,38,7,57,40,87,78,57,80,79,99,63,79,66,19,91,87,72,34,21,34,15,66,68,9,99,94,67,92,79,61,33,32"
dtnsim.node[3].app.destinationEid = "2,2,2,2,2,2,2,2,2,2,2,2,2,2,2,2,2,2,2,2,2,4,4,4,4,4,4,4,4,4,4,4,4,4,4,4,4,4,4,4,4,4,4,4,4,4,4,4,4,4,4,4,4,4,4,4,4,4,4,4,4,4,4,4,4,4,4,4,4,4,4,4,4,4,4,4,4,4,4,4,4,4,4,4,4,4,4,4,4,4,4,4,4,4,4,4,4,4,4,4"
dtnsim.node[3].app.size = "200,100,500,500,500,500,50,50,500,200,50,500,50,50,100,500,200,50,50,100,200,200,500,100,200,100,50,50,100,500,100,100,50,200,50,50,200,100,100,200,100,500,500,500,200,500,100,50,100,100,50,500,50,50,500,500,100,100,500,100,500,100,500,100,50,500,200,100,200,100,100,50,50,50,500,500,500,200,50,50,200,500,50,100,50,50,500,200,50,50,500,200,50,200,500,50,500,100,50,100"
# Node 4 random conversational traffic
dtnsim.node[4].app.enable = true
dtnsim.node[4].app.bundlesNumber = "4,1,1,2,2,2,4,2,2,4,2,4,2,2,5,4,1,2,3,2,3,2,1,3,4,1,2,3,5,5,5,3,5,1,2,4,1,2,5,4,3,3,1,4,5,5,4,3,1,5,5,5,3,2,4,3,5,3,2,5,3,3,2,3,4,5,3,2,4,4,1,2,4,3,4,1,2,1,3,4,3,1,3,4,1,3,5,2,3,4,4,1,3,5,4,4,1,1,3,1"
dtnsim.node[4].app.start = "78,58,24,93,61,17,79,24,12,77,34,100,16,15,75,6,91,25,26,46,34,74,86,100,16,84,45,94,41,16,59,42,62,83,80,89,68,75,41,36,24,70,19,96,99,62,39,28,29,44,78,72,6,64,41,17,34,59,19,10,56,86,25,63,26,48,78,23,33,24,15,34,2,3,49,20,85,69,23,76,7,76,5,17,81,29,12,71,59,10,21,85,97,1,26,47,17,72,80,76"
dtnsim.node[4].app.destinationEid = "3,3,3,3,3,3,3,3,3,3,3,3,3,3,3,3,3,3,3,3,3,3,3,3,3,3,3,3,3,3,3,3,3,3,3,3,3,3,3,3,3,3,3,3,3,3,3,5,5,5,5,5,5,5,5,5,5,5,5,5,5,5,5,5,5,5,5,5,5,5,5,5,5,5,5,5,5,5,5,5,5,5,5,5,5,5,5,5,5,5,5,5,5,5,5,5,5,5,5,5"
dtnsim.node[4].app.size = "50,100,50,500,50,500,500,200,500,100,50,500,500,500,50,50,50,100,500,100,200,200,100,50,50,500,500,100,50,500,500,500,200,500,100,500,100,200,50,100,100,200,100,100,500,500,200,500,500,50,50,500,50,200,50,100,200,100,100,500,500,100,200,200,50,500,50,200,500,50,100,100,200,100,100,100,200,200,50,500,200,100,200,50,500,500,500,500,100,100,200,500,100,50,100,50,50,200,500,100"
# Node 5 random conversational traffic
dtnsim.node[5].app.enable = true
dtnsim.node[5].app.bundlesNumber = "2,2,1,4,4,5,1,5,1,5,1,1,5,4,2,1,2,4,4,1,1,1,4,3,2,1,4,2,5,5,3,1,1,5,1,5,2,4,4,1,3,5,4,1,4,3,1,4,5,3,4,2,4,1,1,3,1,5,5,3,3,5,5,2,5,2,4,4,2,4,4,3,3,2,5,5,5,1,1,5,2,3,5,3,1,4,1,5,5,4,1,5,1,1,1,3,4,3,3,5"
dtnsim.node[5].app.start = "32,50,66,48,27,37,67,22,62,29,33,49,81,33,42,24,12,4,23,89,76,29,79,14,83,75,69,16,30,87,100,8,31,52,76,81,3,26,67,73,78,58,7,99,69,95,63,78,17,71,19,59,48,73,12,22,37,61,74,83,56,17,26,96,53,47,83,15,56,97,17,39,89,26,71,10,37,10,38,77,79,47,27,79,53,93,60,59,27,41,77,72,72,26,36,61,52,87,75,5"
dtnsim.node[5].app.destinationEid = "4,4,4,4,4,4,4,4,4,4,4,4,4,4,4,4,4,4,4,4,4,4,4,4,4,4,4,4,4,4,4,4,4,4,4,4,6,6,6,6,6,6,6,6,6,6,6,6,6,6,6,6,6,6,6,6,6,6,6,6,6,6,6,6,6,6,6,6,6,6,6,6,6,6,6,6,6,6,6,6,6,6,6,6,6,6,6,6,6,6,6,6,6,6,6,6,6,6,6,6"
dtnsim.node[5].app.size = "50,50,50,500,200,200,100,50,200,200,200,100,200,50,500,50,50,200,50,200,500,500,50,500,200,500,100,500,50,200,500,100,100,50,200,50,100,50,200,200,500,50,500,200,100,100,50,50,50,200,50,200,100,100,50,500,500,100,100,500,500,200,50,100,500,100,200,50,50,100,200,50,50,200,200,50,500,200,100,200,200,500,100,50,500,200,100,50,200,500,500,500,200,500,500,50,500,200,50,500"
# Node 6 random conversational traffic
dtnsim.node[6].app.enable = true
dtnsim.node[6].app.bundlesNumber = "2,5,5,3,2,1,3,1,1,5,5,4,2,2,2,5,2,1,2,4,2,3,2,5,4,2,2,1,1,2,2,2,3,4,2,2,5,4,2,3,1,2,4,5,1,4,5,4,5,5,1,3,1,3,3,4,4,4,4,1,4,2,5,5,5,5,5,3,3,1,2,1,1,5,2,2,5,5,3,3,4,4,4,1,2,1,4,2,1,2,3,3,5,3,4,2,2,5,4,2"
dtnsim.node[6].app.start = "27,74,77,12,96,83,25,68,53,18,30,71,78,87,23,97,51,88,63,22,47,95,80,38,11,43,37,100,64,62,48,76,28,43,71,79,10,87,4,48,67,54,34,53,18,76,95,89,11,1,19,84,19,64,2,88,29,86,91,59,13,65,86,76,63,81,56,47,6,52,71,38,36,54,56,42,20,5,7,31,78,48,84,98,31,10,82,81,6,61,4,48,68,63,52,33,51,14,90,54"
dtnsim.node[6].app.destinationEid = "5,5,5,5,5,5,5,5,5,5,5,5,5,5,5,5,5,5,5,5,5,5,5,5,5,5,5,5,5,5,5,5,5,5,5,5,7,7,7,7,7,7,7,7,7,7,7,7,7,7,7,7,7,7,7,7,7,7,7,7,7,7,7,7,7,7,7,7,7,7,7,7,7,7,7,7,7,7,7,7,7,7,7,7,7,7,7,7,7,7,7,7,7,7,7,7,7,7,7,7"
dtnsim.node[6].app.size = "200,50,200,100,200,200,500,100,500,200,500,50,50,200,200,50,500,100,50,500,100,200,100,50,500,50,100,500,100,200,50,200,500,50,500,100,500,200,200,100,50,50,200,100,100,200,500,200,500,500,500,50,100,500,500,100,50,200,50,50,50,50,100,500,500,50,500,500,100,200,500,50,50,500,50,200,50,50,50,50,500,100,200,100,50,100,100,500,100,200,500,100,100,500,500,500,100,200,200,200"
# Node 7 random conversational traffic
dtnsim.node[7].app.enable = true
dtnsim.node[7].app.bundlesNumber = "2,3,1,5,5,1,5,4,5,2,1,4,5,4,3,4,4,1,2,1,4,5,3,2,3,2,2,2,3,1,4,5,4,4,2,1,5,4,4,1,1,4,1,4,2,4,2,4,5,2,5,3,4,1,3,1,2,2,4,4,5,1,4,5,1,4,1,1,5,5,2,2,4,1,2,5,1,2,3,2,5,3,3,5,2,4,3,2,5,3,3,3,2,2,5,1,3,2,1,2"
dtnsim.node[7].app.start = "70,57,58,21,78,97,96,16,86,24,3,38,91,88,65,87,57,77,57,27,14,35,86,53,86,99,17,85,10,12,52,69,55,15,6,29,19,90,75,16,62,28,96,40,3,73,63,63,6,16,14,77,100,98,87,39,51,72,17,13,4,81,4,73,78,68,83,43,68,40,97,3,98,64,78,9,70,72,14,1,84,23,41,66,3,38,55,70,35,61,95,73,85,98,73,10,38,86,90,9"
dtnsim.node[7].app.destinationEid = "6,6,6,6,6,6,6,6,6,6,6,6,6,6,6,6,6,6,6,6,6,6,6,6,6,6,6,6,6,6,6,6,6,6,8,8,8,8,8,8,8,8,8,8,8,8,8,8,8,8,8,8,8,8,8,8,8,8,8,8,8,8,8,8,8,8,8,8,8,8,8,8,8,8,8,8,8,8,8,8,8,8,8,8,8,8,8,8,8,8,8,8,8,8,8,8,8,8,8,8"
dtnsim.node[7].app.size = "500,100,500,200,100,200,100,500,100,500,100,50,500,500,200,50,200,200,500,100,500,100,50,200,200,200,100,200,500,500,100,100,200,50,200,50,500,500,500,200,50,200,100,50,50,50,200,500,500,100,500,200,500,50,500,50,100,50,100,100,50,500,200,50,50,100,500,50,500,500,200,100,200,200,500,200,100,100,100,100,200,200,500,50,500,100,100,100,500,50,500,500,200,500,200,500,200,50,200,100"
# Node 8 random conversational traffic
dtnsim.node[8].app.enable = true
dtnsim.node[8].app.bundlesNumber = "2,3,1,4,1,1,5,5,5,4,1,3,1,4,1,5,2,1,5,1,1,5,1,2,2,3,2,3,1,5,3,2,2,5,5,4,5,1,1,3,4,3,5,2,4,3,2,4,4,3,4,5,4,5,3,3,2,2,4,2,5,3,3,3,1,4,3,2,3,2,5,1,3,2,2,1,2,5,2,1,1,3,4,4,2,3,2,2,4,5,1,4,4,5,4,3,5,3,2,4"
dtnsim.node[8].app.start = "8,26,97,79,20,72,38,47,76,24,100,100,41,52,74,7,87,69,92,77,44,11,12,72,3,91,71,76,40,65,97,87,17,48,93,67,49,76,3,48,18,30,96,20,92,17,49,64,71,84,69,23,36,58,11,43,38,2,76,73,39,15,74,46,91,83,69,32,72,28,54,88,27,63,31,98,36,5,20,98,80,89,32,13,77,94,66,86,37,64,76,32,32,44,7,28,39,98,27,62"
dtnsim.node[8].app.destinationEid = "7,7,7,7,7,7,7,7,7,7,7,7,7,7,7,7,7,7,7,7,7,7,7,7,7,7,7,7,7,7,7,7,7,7,7,9,9,9,9,9,9,9,9,9,9,9,9,9,9,9,9,9,9,9,9,9,9,9,9,9,9,9,9,9,9,9,9,9,9,9,9,9,9,9,9,9,9,9,9,9,9,9,9,9,9,9,9,9,9,9,9,9,9,9,9,9,9,9,9,9"
dtnsim.node[8].app.size = "200,100,500,100,50,50,100,50,100,100,200,200,50,500,100,100,100,200,500,500,200,50,100,200,50,100,100,100,100,50,500,50,50,200,50,500,200,200,50,500,500,500,50,500,200,100,500,500,200,50,50,500,200,50,100,200,200,100,50,500,50,50,100,200,50,200,200,100,200,100,50,50,500,50,50,500,100,100,200,100,50,200,50,500,100,50,100,50,500,50,100,200,50,500,50,500,50,100,200,50"
# Node 9 random conversational traffic
dtnsim.node[9].app.enable = true
dtnsim.node[9].app.bundlesNumber = "3,2,5,4,3,3,2,3,4,2,3,2,5,3,5,4,1,4,3,1,4,3,2,3,4,4,1,1,1,4,5,1,2,2,5,5,2,3,3,5,3,1,2,4,2,3,5,3,1,3,4,3,1,1,3,4,4,4,3,2,2,1,2,2,2,3,3,3,1,1,2,2,3,3,3,4,4,3,1,3,1,3,5,2,2,4,2,2,4,3,2,1,4,4,5,1,2,4,4,3"
dtnsim.node[9].app.start = "71,51,81,9,58,20,36,98,22,56,72,76,90,75,27,45,62,48,46,9,80,24,88,30,71,32,100,100,85,95,87,96,75,93,39,50,8,46,32,65,23,32,34,2,57,89,93,41,37,48,6,77,92,48,49,87,56,54,95,91,12,99,2,70,94,37,63,67,51,90,7,10,32,86,9,73,95,22,56,71,45,37,58,38,94,89,40,24,1,64,86,53,72,36,51,44,70,42,32,50"
dtnsim.node[9].app.destinationEid = "8,8,8,8,8,8,8,8,8,8,8,8,8,8,8,8,8,8,8,8,8,8,8,8,8,8,8,8,8,8,8,8,8,8,8,8,8,8,8,8,10,10,10,10,10,10,10,10,10,10,10,10,10,10,10,10,10,10,10,10,10,10,10,10,10,10,10,10,10,10,10,10,10,10,10,10,10,10,10,10,10,10,10,10,10,10,10,10,10,10,10,10,10,10,10,10,10,10,10,10"
dtnsim.node[9].app.size = "100,50,100,100,100,500,500,100,50,100,50,100,50,500,100,200,200,200,100,200,200,100,200,100,100,50,100,500,500,50,100,50,100,200,50,200,50,50,200,500,200,500,200,500,50,100,50,500,100,200,200,100,200,500,200,500,200,500,50,500,100,200,50,100,100,100,200,100,200,500,50,100,200,50,500,50,200,100,500,500,500,200,100,500,50,200,100,200,100,200,100,50,100,200,100,100,100,50,50,500"
# Node 10 random conversational traffic
dtnsim.node[10].app.enable = true
dtnsim.node[10].app.bundlesNumber = "5,4,4,2,4,3,5,4,3,1,1,4,3,4,1,1,1,2,4,4,3,1,2,5,4,2,2,2,1,5,2,5,5,5,3,3,1,3,4,1,1,3,2,5,2,4,2,2,4,1,4,5,2,4,1,2,3,2,4,3,2,2,3,5,2,2,5,2,2,2,5,1,4,1,2,5,3,5,1,1,4,2,4,4,4,1,5,3,2,5,4,2,5,4,2,4,5,1,3,1"
dtnsim.node[10].app.start = "24,37,66,98,84,97,50,60,22,9,72,39,58,11,37,18,79,65,46,97,96,6,74,37,61,53,75,43,35,70,52,17,59,34,77,10,88,76,90,61,37,2,19,15,55,95,51,28,90,72,86,24,3,2,38,20,89,87,71,57,55,46,69,89,87,53,62,56,39,100,79,75,54,26,4,25,73,13,97,95,21,89,87,57,74,14,55,63,60,83,51,48,71,73,74,47,93,79,2,43"
dtnsim.node[10].app.destinationEid = "9,9,9,9,9,9,9,9,9,9,9,9,9,9,9,9,9,9,9,9,9,9,9,9,9,9,9,9,9,11,11,11,11,11,11,11,11,11,11,11,11,11,11,11,11,11,11,11,11,11,11,11,11,11,11,11,11,11,11,11,11,11,11,11,11,11,11,11,11,11,11,11,11,11,11,11,11,11,11,11,11,11,11,11,11,11,11,11,11,11,11,11,11,11,11,11,11,11,11,11"
dtnsim.node[10].app.size = "100,500,500,100,500,500,200,200,200,50,500,500,200,200,100,200,50,100,50,200,100,200,200,100,100,200,200,500,500,50,200,100,500,50,50,100,50,50,50,500,500,100,100,50,500,100,500,500,200,50,500,200,100,50,50,500,50,100,200,50,200,500,500,500,100,500,200,200,500,500,50,500,50,50,200,500,500,500,100,100,500,100,500,500,200,200,100,50,500,200,50,50,500,500,100,100,50,500,500,500"
# Node 11 random conversational traffic
dtnsim.node[11].app.enable = true
dtnsim.node[11].app.bundlesNumber = "4,1,1,2,3,3,1,5,4,2,4,1,4,5,5,2,1,1,4,1,5,3,2,2,3,1,2,3,3,2,4,5,5,4,5,4,3,2,2,2,1,1,1,3,1,3,4,1,2,5,4,3,4,2,5,4,2,3,5,5,1,4,4,2,4,4,1,1,1,5,4,5,4,1,1,4,4,2,3,3,3,1,3,4,4,4,2,2,5,4,2,4,2,4,3,3,2,1,1,4"
dtnsim.node[11].app.start = "77,56,23,63,40,12,91,82,93,38,10,24,60,99,52,93,59,47,70,58,62,43,100,11,26,22,99,29,99,77,16,57,67,92,56,77,49,99,87,12,43,2,40,3,26,15,14,25,64,34,2,77,47,16,46,21,87,25,47,55,50,94,36,74,81,92,46,45,97,22,20,89,11,70,16,80,71,72,55,42,100,16,37,64,37,64,46,60,66,91,60,46,71,37,28,17,21,44,38,47"
dtnsim.node[11].app.destinationEid = "10,10,10,10,10,10,10,10,10,10,10,10,10,10,10,10,10,10,10,10,10,10,10,10,10,10,10,10,10,10,10,10,10,10,10,10,10,10,10,10,12,12,12,12,12,12,12,12,12,12,12,12,12,12,12,12,12,12,12,12,12,12,12,12,12,12,12,12,12,12,12,12,12,12,12,12,12,12,12,12,12,12,12,12,12,12,12,12,12,12,12,12,12,12,12,12,12,12,12,12"
dtnsim.node[11].app.size = "200,200,100,500,200,500,200,50,50,100,500,200,50,200,500,100,200,500,500,500,500,200,100,50,500,200,100,500,50,200,100,50,100,500,50,200,500,50,500,50,100,500,50,200,200,200,200,200,50,500,50,500,200,200,50,50,50,100,50,50,50,200,500,200,100,500,100,200,200,50,50,100,50,500,100,100,100,100,500,500,100,200,100,50,50,200,500,200,50,200,200,50,50,200,50,200,200,100,50,200"
# Node 12 random conversational traffic
dtnsim.node[12].app.enable = true
dtnsim.node[12].app.bundlesNumber = "5,4,4,2,1,5,1,5,5,4,4,4,3,3,1,2,2,4,5,1,4,1,3,1,4,5,4,4,4,2,5,3,5,5,3,3,1,3,3,4,1,2,2,5,4,4,2,4,1,4,5,1,4,3,2,1,5,3,4,4,2,4,1,4,5,5,2,3,2,1,3,3,4,2,5,1,2,5,5,1,5,1,4,3,4,1,4,2,1,5,4,2,1,4,3,1,4,1,1,3"
dtnsim.node[12].app.start = "50,42,8,20,35,5,81,51,96,57,51,83,85,100,50,98,29,90,24,84,78,100,39,65,45,74,51,61,68,99,68,55,73,41,31,48,49,68,84,19,34,7,25,18,90,57,20,91,42,74,25,68,94,58,28,98,71,74,34,49,29,67,100,24,74,97,71,88,7,49,4,1,77,23,40,17,23,44,44,62,82,54,37,27,43,73,39,89,88,51,86,15,53,46,95,60,80,29,24,93"
dtnsim.node[12].app.destinationEid = "11,11,11,11,11,11,11,11,11,11,11,11,11,11,11,11,11,11,11,11,11,11,11,11,11,11,11,11,11,11,11,11,11,11,11,11,11,13,13,13,13,13,13,13,13,13,13,13,13,13,13,13,13,13,13,13,13,13,13,13,13,13,13,13,13,13,13,13,13,13,13,13,13,13,13,13,13,13,13,13,13,13,13,13,13,13,13,13,13,13,13,13,13,13,13,13,13,13,13,13"
dtnsim.node[12].app.size = "500,100,50,50,200,200,200,50,100,50,500,200,200,200,200,500,50,50,200,100,200,500,50,200,200,500,50,100,100,500,500,100,100,200,50,500,500,100,100,100,200,50,50,50,200,200,100,100,50,50,50,100,200,200,500,500,200,100,500,500,100,50,500,100,100,100,100,100,500,100,500,200,50,50,200,200,500,50,50,100,500,50,100,100,500,200,100,200,100,100,100,200,200,500,500,500,100,500,100,500"
# Node 13 random conversational traffic
dtnsim.node[13].app.enable = true
dtnsim.node[13].app.bundlesNumber = "5,1,1,4,1,3,1,4,1,2,2,2,3,5,1,2,2,4,4,1,5,1,5,4,2,2,2,1,2,3,1,4,2,2,1,5,3,1,2,5,5,2,4,5,1,5,2,3,3,4,5,3,1,2,1,2,3,3,5,1,1,3,5,5,1,3,5,3,4,5,4,5,3,4,5,1,4,3,5,3,3,3,5,4,2,3,3,2,2,1,1,2,2,1,4,1,2,1,1,1"
dtnsim.node[13].app.start = "29,36,13,94,45,33,81,41,33,70,99,74,92,16,57,44,32,49,51,68,85,57,45,35,78,40,63,49,99,69,82,36,96,72,3,36,82,8,65,49,76,52,63,98,83,83,43,88,100,86,89,80,30,54,65,27,36,40,43,45,70,5,24,62,20,27,22,13,93,34,22,28,41,63,88,36,78,9,31,88,56,75,60,31,39,67,63,77,79,96,100,88,40,39,92,70,59,51,23,49"
dtnsim.node[13].app.destinationEid = "12,12,12,12,12,12,12,12,12,12,12,12,12,12,12,12,12,12,12,12,12,12,12,12,12,12,12,12,12,12,12,12,12,14,14,14,14,14,14,14,14,14,14,14,14,14,14,14,14,14,14,14,14,14,14,14,14,14,14,14,14,14,14,14,14,14,14,14,14,14,14,14,14,14,14,14,14,14,14,14,14,14,14,14,14,14,14,14,14,14,14,14,14,14,14,14,14,14,14,14"
dtnsim.node[13].app.size = "50,50,50,50,50,200,200,50,50,50,50,100,500,100,100,500,500,50,500,100,500,500,50,200,50,200,50,200,200,200,500,200,200,200,500,200,50,500,50,50,100,200,500,200,200,500,200,100,50,100,200,50,200,100,200,100,100,500,200,50,500,200,50,100,200,50,500,500,200,50,50,100,100,50,50,100,200,50,100,50,100,200,200,500,500,500,200,200,200,50,50,500,100,200,500,500,50,100,100,200"
# Node 14 random conversational traffic
dtnsim.node[14].app.enable = true
dtnsim.node[14].app.bundlesNumber = "3,4,4,4,3,3,5,1,3,5,1,4,2,2,1,4,4,2,1,2,2,2,5,2,1,3,1,2,5,4,1,1,2,3,1,1,5,4,2,4,2,2,3,2,3,2,5,1,3,4,3,5,4,5,5,2,1,4,2,3,2,3,4,1,4,1,5,1,4,2,4,5,3,3,5,5,2,1,5,2,3,2,2,3,5,5,3,4,1,4,3,4,4,4,3,1,2,4,3,4"
dtnsim.node[14].app.start = "74,6,87,14,57,81,57,89,92,100,93,92,87,37,57,72,43,50,77,8,65,35,31,15,30,93,43,87,12,35,58,45,85,81,97,100,96,44,46,78,59,56,78,95,42,11,47,66,58,80,89,21,95,58,53,35,56,15,26,69,75,47,68,73,3,13,27,82,61,12,7,18,11,39,25,19,67,75,86,60,33,5,39,48,23,92,82,42,39,2,61,47,80,4,87,19,49,41,59,14"
dtnsim.node[14].app.destinationEid = "13,13,13,13,13,13,13,13,13,13,13,13,13,13,13,13,13,13,13,13,13,13,13,13,13,13,13,13,13,13,13,13,13,13,13,13,13,13,13,13,13,13,15,15,15,15,15,15,15,15,15,15,15,15,15,15,15,15,15,15,15,15,15,15,15,15,15,15,15,15,15,15,15,15,15,15,15,15,15,15,15,15,15,15,15,15,15,15,15,15,15,15,15,15,15,15,15,15,15,15"
dtnsim.node[14].app.size = "100,50,50,200,50,500,50,500,100,100,100,500,50,50,100,50,100,500,100,200,200,50,50,50,200,500,500,50,100,200,50,500,500,500,50,200,200,100,50,500,500,100,100,500,200,100,200,200,100,100,500,100,50,50,100,200,500,50,50,500,200,100,200,500,100,100,100,50,200,500,100,500,500,500,50,500,500,100,100,500,200,200,500,100,50,500,500,200,200,500,200,500,50,500,500,500,500,500,200,500"
# Node 15 random conversational traffic
dtnsim.node[15].app.enable = true
dtnsim.node[15].app.bundlesNumber = "2,2,5,2,1,1,3,4,5,4,4,1,1,4,1,1,1,1,2,5,3,2,3,3,4,3,1,5,5,2,5,4,3,2,4,4,1,2,4,1,1,4,1,1,3,5,2,2,2,5,1,5,2,1,1,4,5,4,1,5,3,4,2,5,1,2,1,5,4,2,2,5,4,4,2,5,4,1,5,1,1,3,4,3,3,1,5,1,5,1,5,1,2,1,2,5,1,4,2,1"
dtnsim.node[15].app.start = "82,45,18,75,87,97,68,56,43,59,18,31,57,70,28,86,14,24,43,32,28,76,65,43,15,48,50,27,84,45,69,48,9,52,42,68,18,83,94,61,74,12,98,54,31,35,64,60,73,45,32,75,77,42,51,44,69,17,38,8,77,10,51,26,81,38,96,51,43,71,87,54,78,48,46,85,2,66,44,65,14,51,94,13,85,17,19,77,12,64,4,13,34,17,93,28,20,91,72,91"
dtnsim.node[15].app.destinationEid = "14,14,14,14,14,14,14,14,14,14,14,14,14,14,14,14,14,14,14,14,14,14,14,14,14,14,14,14,14,14,14,14,14,14,14,14,14,16,16,16,16,16,16,16,16,16,16,16,16,16,16,16,16,16,16,16,16,16,16,16,16,16,16,16,16,16,16,16,16,16,16,16,16,16,16,16,16,16,16,16,16,16,16,16,16,16,16,16,16,16,16,16,16,16,16,16,16,16,16,16"
dtnsim.node[15].app.size = "50,50,50,100,100,50,100,200,200,50,50,50,500,500,500,50,100,100,50,100,100,100,50,500,500,500,100,100,200,100,50,200,100,100,500,200,500,50,500,50,50,500,50,200,500,100,100,100,50,50,50,500,50,100,100,50,100,200,50,100,500,100,100,50,50,100,50,200,200,100,200,50,200,100,50,100,100,50,50,200,100,100,500,50,50,100,200,500,50,200,500,100,200,50,50,500,50,500,50,200"
# Node 16 random conversational traffic
dtnsim.node[16].app.enable = true
dtnsim.node[16].app.bundlesNumber = "1,4,5,5,4,4,5,3,2,1,4,4,5,4,1,4,1,5,5,3,4,2,4,5,4,3,1,4,2,3,2,2,3,4,2,1,5,5,2,5,5,5,3,3,1,3,4,5,4,5,2,5,5,3,3,3,3,1,1,2,2,1,2,1,4,1,4,5,3,3,3,2,4,1,3,3,3,4,2,2,3,5,2,3,2,2,3,2,3,1,1,4,3,1,1,5,5,4,4,1"
dtnsim.node[16].app.start = "91,96,69,100,35,39,65,52,40,73,41,10,14,83,48,99,53,74,58,84,49,52,93,7,76,50,66,61,95,93,29,17,72,5,94,30,93,82,27,6,83,68,67,43,85,87,57,23,18,20,21,96,89,79,34,67,59,21,48,42,81,72,63,69,40,48,70,59,41,12,23,34,39,16,57,12,46,69,54,63,16,57,50,34,9,53,71,79,92,93,55,28,53,24,12,58,64,34,25,15"
dtnsim.node[16].app.destinationEid = "15,15,15,15,15,15,15,15,15,15,15,15,15,15,15,15,15,15,15,15,15,15,15,15,15,15,15,15,15,15,15,15,15,15,15,15,15,17,17,17,17,17,17,17,17,17,17,17,17,17,17,17,17,17,17,17,17,17,17,17,17,17,17,17,17,17,17,17,17,17,17,17,17,17,17,17,17,17,17,17,17,17,17,17,17,17,17,17,17,17,17,17,17,17,17,17,17,17,17,17"
dtnsim.node[16].app.size = "500,500,100,100,50,50,100,200,200,500,500,500,500,500,50,50,100,100,200,50,500,200,100,100,100,500,50,100,200,200,100,50,50,500,200,50,100,100,500,200,50,50,200,100,50,500,50,500,500,50,50,50,200,100,100,500,100,500,50,200,200,50,200,50,500,50,50,500,100,50,50,200,200,500,100,50,100,200,100,500,200,500,200,500,100,100,200,100,50,100,500,200,100,100,100,50,200,500,50,500"
# Node 17 random conversational traffic
dtnsim.node[17].app.enable = true
dtnsim.node[17].app.bundlesNumber = "1,1,3,2,2,4,4,5,4,1,1,4,5,3,1,4,3,5,5,1,5,3,4,1,5,2,4,3,1,2,4,1,2,4,5,3,4,4,5,2,2,3,2,1,1,4,1,3,2,1,1,1,4,3,5,1,1,3,3,4,1,1,5,3,5,4,4,5,3,2,1,2,2,2,4,1,4,4,1,1,1,3,2,2,5,2,2,3,4,1,2,3,3,4,5,3,2,5,5,1"
dtnsim.node[17].app.start = "84,11,78,51,63,20,23,100,63,52,85,78,47,51,78,51,25,37,47,25,59,50,78,56,65,40,59,77,93,65,31,62,16,36,23,79,64,48,10,28,86,51,28,20,100,6,73,52,83,76,75,58,98,95,80,2,84,13,59,93,27,45,61,40,59,3,31,82,88,36,54,68,85,76,67,91,12,16,80,65,61,56,92,77,59,34,40,35,69,13,87,8,95,16,55,24,53,68,84,88"
dtnsim.node[17].app.destinationEid = "16,16,16,16,16,16,16,16,16,16,16,16,16,16,16,16,16,16,16,16,16,16,16,16,16,16,16,16,16,16,16,16,16,16,16,18,18,18,18,18,18,18,18,18,18,18,18,18,18,18,18,18,18,18,18,18,18,18,18,18,18,18,18,18,18,18,18,18,18,18,18,18,18,18,18,18,18,18,18,18,18,18,18,18,18,18,18,18,18,18,18,18,18,18,18,18,18,18,18,18"
dtnsim.node[17].app.size = "200,200,50,200,50,500,200,50,200,200,500,100,200,50,100,500,500,100,500,100,500,200,200,50,500,50,50,50,100,50,200,100,50,200,50,500,200,50,500,200,50,200,200,500,50,50,50,100,200,500,100,100,200,200,100,50,50,50,50,100,100,500,200,100,500,200,50,100,50,50,200,50,100,200,50,500,50,50,200,500,100,200,50,100,200,50,200,500,200,200,100,500,200,200,100,200,200,500,100,100"
# Node 18 random conversational traffic
dtnsim.node[18].app.enable = true
dtnsim.node[18].app.bundlesNumber = "1,5,1,2,1,3,2,1,3,5,1,1,1,1,5,1,2,4,4,4,2,3,3,4,3,2,3,4,1,4,1,3,5,1,5,5,2,3,2,5,5,1,4,3,3,5,1,5,4,2,3,3,5,1,2,1,5,1,3,2,3,2,5,3,4,5,1,3,2,4,3,4,4,1,3,4,3,3,5,4,4,3,2,2,1,3,3,4,2,2,5,4,1,3,4,4,4,2,3,2"
dtnsim.node[18].app.start = "68,15,31,94,61,35,21,100,12,84,82,66,99,86,93,64,96,33,68,50,66,12,91,96,58,78,82,16,22,86,72,58,94,78,62,41,49,41,74,99,23,61,75,87,94,26,13,35,77,88,17,48,90,25,11,54,12,42,52,72,82,21,92,22,9,37,54,84,91,24,84,77,17,63,97,92,92,46,6,16,20,11,100,82,59,50,78,6,81,59,69,84,98,33,24,93,74,25,2,32"
dtnsim.node[18].app.destinationEid = "17,17,17,17,17,17,17,17,17,17,17,17,17,17,17,17,17,17,17,17,17,17,17,17,17,17,17,17,17,17,17,17,17,17,17,17,17,17,17,17,17,17,17,17,17,19,19,19,19,19,19,19,19,19,19,19,19,19,19,19,19,19,19,19,19,19,19,19,19,19,19,19,19,19,19,19,19,19,19,19,19,19,19,19,19,19,19,19,19,19,19,19,19,19,19,19,19,19,19,19"
dtnsim.node[18].app.size = "50,500,500,100,500,200,50,500,200,50,100,100,200,500,50,50,100,100,100,100,500,100,200,200,500,100,100,500,500,100,200,100,50,100,500,50,50,500,100,200,100,500,100,100,500,200,50,100,500,100,500,500,200,100,50,200,50,500,500,200,200,100,200,200,200,50,100,100,500,500,500,200,50,50,500,200,100,100,100,500,50,50,100,200,200,50,50,500,500,100,200,200,50,500,100,500,500,100,100,50"
# Node 19 random conversational traffic
dtnsim.node[19].app.enable = true
dtnsim.node[19].app.bundlesNumber = "3,4,2,1,3,4,3,3,5,1,4,5,2,3,1,2,3,3,2,2,3,2,1,2,4,5,4,2,4,1,4,2,5,2,3,3,5,3,4,5,2,2,1,1,2,4,2,2,3,5,3,5,3,5,3,1,5,2,4,1,3,2,3,3,2,4,4,3,1,5,2,1,2,3,2,4,2,3,2,2,2,5,2,4,3,4,2,4,3,1,5,5,1,1,1,1,2,1,4,4"
dtnsim.node[19].app.start = "29,45,82,19,57,93,20,18,59,80,28,93,15,44,88,93,25,65,100,100,8,28,100,91,66,74,99,83,34,4,34,45,80,3,87,78,63,11,60,100,84,4,96,1,24,57,49,20,95,8,91,78,8,47,32,84,16,6,59,94,66,37,23,35,36,25,17,43,90,13,42,55,20,43,3,45,1,61,82,29,55,6,82,81,72,96,24,16,5,63,27,34,54,18,68,49,33,14,68,67"
dtnsim.node[19].app.destinationEid = "18,18,18,18,18,18,18,18,18,18,18,18,18,18,18,18,18,18,18,18,18,18,18,18,18,18,18,18,18,18,18,20,20,20,20,20,20,20,20,20,20,20,20,20,20,20,20,20,20,20,20,20,20,20,20,20,20,20,20,20,20,20,20,20,20,20,20,20,20,20,20,20,20,20,20,20,20,20,20,20,20,20,20,20,20,20,20,20,20,20,20,20,20,20,20,20,20,20,20,20"
dtnsim.node[19].app.size = "50,50,500,100,500,200,200,100,200,500,50,100,500,500,50,100,200,500,100,500,500,100,50,100,200,50,500,200,500,500,50,200,200,500,200,50,50,100,100,100,200,50,200,200,100,100,500,100,100,100,50,100,500,50,100,100,50,200,500,50,100,200,500,100,50,200,500,500,200,50,200,100,200,200,50,200,200,50,50,500,50,200,200,50,50,500,100,500,100,200,200,50,200,500,200,500,200,200,50,100"
# Node 20 random conversational traffic
dtnsim.node[20].app.enable = true
dtnsim.node[20].app.bundlesNumber = "1,2,3,3,3,3,5,2,2,3,3,3,3,3,1,5,3,3,1,3,4,3,1,2,4,4,5,2,4,3,5,4,2,3,1,2,4,4,5,5,5,2,1,5,1,4,1,1,5,5,3,3,1,5,4,2,3,1,2,1,1,2,4,1,4,4,4,4,5,3,1,3,1,2,3,5,4,2,5,1,3,5,3,4,1,5,1,5,4,1,4,2,2,2,3,4,5,3,2,1"
dtnsim.node[20].app.start = "48,81,8,95,87,67,62,100,8,4,32,66,51,99,16,94,83,36,10,68,43,50,15,22,49,67,32,62,79,99,25,30,56,20,78,52,42,20,91,24,24,2,79,83,32,56,3,67,67,70,24,45,87,30,76,97,36,92,90,63,42,65,14,54,71,79,2,19,5,22,68,85,21,45,25,16,42,88,79,97,78,6,88,80,84,1,12,58,26,61,51,75,23,55,80,84,72,62,73,21"
dtnsim.node[20].app.destinationEid = "19,19,19,19,19,19,19,19,19,19,19,19,19,19,19,19,19,19,19,19,19,19,19,19,19,19,19,19,19,19,19,19,19,19,19,19,19,21,21,21,21,21,21,21,21,21,21,21,21,21,21,21,21,21,21,21,21,21,21,21,21,21,21,21,21,21,21,21,21,21,21,21,21,21,21,21,21,21,21,21,21,21,21,21,21,21,21,21,21,21,21,21,21,21,21,21,21,21,21,21"
dtnsim.node[20].app.size = "500,500,100,100,50,50,200,500,100,500,500,50,100,50,50,200,50,200,200,200,50,200,200,100,200,200,200,500,50,500,100,50,200,200,200,50,500,100,500,500,100,500,50,50,500,100,500,500,500,500,50,500,100,50,200,50,500,50,500,200,100,100,500,200,200,100,500,50,200,200,200,200,200,500,200,100,100,50,500,200,50,500,200,500,100,500,50,50,500,500,500,200,200,100,100,100,500,50,200,50"
# Node 21 random conversational traffic
dtnsim.node[21].app.enable = true
dtnsim.node[21].app.bundlesNumber = "5,1,4,5,4,1,1,2,2,5,5,1,3,3,5,1,4,5,1,1,3,4,1,5,1,1,1,3,4,1,1,1,3,3,5,1,1,4,4,2,5,5,2,5,1,4,4,4,2,1,4,1,5,4,1,3,2,2,2,4,1,5,1,5,4,3,4,1,3,5,5,3,3,4,1,3,5,2,5,2,4,2,3,1,1,1,3,4,5,1,2,1,5,3,5,5,1,1,3,4"
dtnsim.node[21].app.start = "24,30,7,87,39,59,13,73,69,72,32,40,40,99,97,44,70,60,75,9,21,86,26,53,31,24,49,94,80,98,86,94,3,65,33,82,65,74,31,46,76,9,35,67,26,15,52,53,72,80,50,35,50,48,57,30,29,82,30,19,74,52,24,63,31,41,14,53,30,56,94,25,84,61,66,57,89,69,64,38,68,96,72,71,94,48,100,71,7,45,17,68,50,100,95,4,55,94,47,76"
dtnsim.node[21].app.destinationEid = "20,20,20,20,20,20,20,20,20,20,20,20,20,20,20,20,20,20,20,20,20,20,20,20,20,20,20,20,20,20,20,20,20,20,20,20,20,20,20,22,22,22,22,22,22,22,22,22,22,22,22,22,22,22,22,22,22,22,22,22,22,22,22,22,22,22,22,22,22,22,22,22,22,22,22,22,22,22,22,22,22,22,22,22,22,22,22,22,22,22,22,22,22,22,22,22,22,22,22,22"
dtnsim.node[21].app.size = "100,200,500,500,50,100,100,100,500,100,500,200,200,100,500,100,100,500,100,500,200,100,50,100,200,50,100,100,50,100,50,500,50,100,500,100,200,200,200,200,50,500,50,100,100,200,200,200,50,200,100,100,50,200,500,100,500,100,500,500,100,200,500,500,50,500,500,50,200,100,50,100,200,100,50,100,50,200,500,200,500,500,50,200,500,500,100,200,200,200,100,50,500,500,50,200,100,50,100,500"
# Node 22 random conversational traffic
dtnsim.node[22].app.enable = true
dtnsim.node[22].app.bundlesNumber = "4,2,2,3,5,1,4,5,5,5,4,3,3,3,2,4,3,4,2,2,2,3,5,3,5,1,2,1,4,4,2,2,2,4,3,2,2,3,3,1,4,2,1,4,5,3,2,4,5,4,1,2,5,1,1,5,1,3,1,4,3,4,2,5,2,5,5,3,2,1,3,3,1,5,3,5,4,2,5,3,5,5,3,4,4,5,3,2,2,3,3,5,1,5,3,4,2,5,3,4"
dtnsim.node[22].app.start = "76,29,85,57,53,49,66,33,91,32,24,81,58,43,54,35,96,27,93,75,99,77,81,95,56,74,23,74,100,99,7,98,34,58,16,99,84,36,76,5,23,87,65,9,25,8,10,91,17,40,36,21,1,66,91,34,42,62,28,32,45,34,7,56,71,62,10,94,67,81,68,23,16,55,21,66,7,68,86,50,49,54,26,92,66,41,58,58,47,53,80,36,91,22,62,100,58,88,87,83"
dtnsim.node[22].app.destinationEid = "21,21,21,21,21,21,21,21,21,21,21,21,21,21,21,21,21,21,21,21,21,21,21,21,21,21,21,21,21,21,21,23,23,23,23,23,23,23,23,23,23,23,23,23,23,23,23,23,23,23,23,23,23,23,23,23,23,23,23,23,23,23,23,23,23,23,23,23,23,23,23,23,23,23,23,23,23,23,23,23,23,23,23,23,23,23,23,23,23,23,23,23,23,23,23,23,23,23,23,23"