[General]
network = src.dtnsim										
repeat = 1
allow-object-stealing-on-deletion = true

# Simulation end time
sim-time-limit = 84600s

# Nodes quantity (identifiers (EiDs) matches their index, EiD=0 is ignored)			
dtnsim.nodesNumber = 360
dtnsim.node[*].icon = "satellite"

# Nodes's failure rates
dtnsim.node[*].fault.enable = false
dtnsim.node[*].fault.meanTTF = 0s
dtnsim.node[*].fault.meanTTR = 0s

# Mobility
dtnsim.node[*].hasMobility = true
dtnsim.node[*].norad.satIndex = parentIndex()
dtnsim.node[*].norad.satName = "sat"
**.updateInterval = 20s
**.numOfSats = 360
**.satPerPlane = 18
**.altitude = 540
**.planes = 20
**.phaseOffset = 11

dtnsim.node[*].dtn.routing = "antop"
dtnsim.node[*].dtn.printRoutingDebug = true

# --- Random Traffic Configuration ---
# Node 1 random traffic
dtnsim.node[1].app.enable = true
dtnsim.node[1].app.bundlesNumber = "34,35,14,45,20,3,48,16,36,46,37,39,31,33,34,13,34,41,19,42,44,45,18,23,17,21,31,22,22,47,25,4,11,48,42,37,7,4,38,43,21,13,39,32,41,32,10,49,15,25,19,12,22,13,27,29,8,27,43,47,28,40,21,2,15,47,22,27,24,25,18,47,42,13,46,13,33,20,40,42,14,24,21,32,29,32,37,42,30,32,7,15,13,31,21,4,41,29,27,49"
dtnsim.node[1].app.start = "87,47,64,37,27,94,13,98,48,61,80,8,7,70,7,37,9,79,62,82,51,40,24,38,71,57,33,36,77,72,8,55,7,32,49,53,17,69,71,18,76,9,16,7,22,100,25,72,89,8,51,33,96,1,77,60,59,98,19,94,33,76,49,26,65,3,33,26,6,65,100,62,94,3,11,29,84,56,17,53,64,34,24,18,4,51,30,67,60,79,66,1,63,14,100,15,18,79,41,22"
dtnsim.node[1].app.destinationEid = "39,30,136,263,139,263,24,327,252,257,291,272,336,219,59,36,178,358,10,353,136,190,335,31,60,294,314,137,319,135,358,297,58,130,274,345,164,237,127,98,84,153,319,320,237,295,198,222,171,5,192,46,221,203,80,91,264,124,19,338,91,296,326,265,189,87,2,199,303,282,188,97,322,137,104,58,156,281,26,325,14,102,320,313,34,82,193,132,262,77,272,337,352,121,21,316,218,11,75,171"
dtnsim.node[1].app.size = "50,100,50,500,200,200,500,200,200,500,500,500,50,500,100,100,500,50,50,200,200,50,500,500,500,50,500,50,200,100,500,200,100,50,50,50,200,200,500,500,200,100,50,500,500,50,500,100,100,100,100,500,200,100,100,50,200,50,500,100,100,50,500,50,200,200,100,500,500,500,100,100,100,100,500,50,500,500,200,500,200,50,500,100,100,50,500,100,50,500,100,100,50,200,500,50,500,50,500,200"
# Node 2 random traffic
dtnsim.node[2].app.enable = true
dtnsim.node[2].app.bundlesNumber = "25,39,43,45,6,24,42,7,29,39,39,37,46,34,34,2,43,17,39,19,2,13,11,42,12,48,11,47,1,2,14,18,7,45,27,24,49,1,44,6,14,24,40,8,22,42,33,21,24,32,12,30,17,50,8,27,28,9,32,22,49,16,35,43,21,27,6,16,7,32,40,11,5,16,26,42,30,7,19,7,44,7,25,28,7,13,39,21,42,14,14,7,10,17,35,2,11,24,42,27"
dtnsim.node[2].app.start = "2,36,40,71,27,51,6,6,7,14,53,10,15,10,58,41,37,41,59,43,98,20,48,30,21,19,2,66,83,47,60,100,3,61,13,61,9,42,16,77,100,83,68,21,30,97,68,45,38,51,13,82,75,58,59,99,24,67,99,42,37,25,2,97,9,85,39,61,71,99,21,98,12,71,99,3,45,75,24,96,84,81,50,100,45,20,91,68,91,83,93,46,50,88,62,75,55,96,78,45"
dtnsim.node[2].app.destinationEid = "43,15,286,214,179,283,131,169,297,293,224,200,174,109,36,229,282,134,155,237,177,138,7,235,357,227,149,119,170,99,307,9,319,194,220,277,104,78,324,143,103,94,160,275,33,322,196,14,172,77,49,159,330,112,114,139,288,176,355,358,147,264,258,340,349,291,179,58,140,14,207,180,146,63,215,255,5,254,12,340,307,240,21,214,27,266,145,112,97,359,346,341,185,307,154,226,162,217,66,274"
dtnsim.node[2].app.size = "500,100,200,200,500,100,100,50,100,50,500,100,500,100,500,50,500,200,100,200,100,500,500,50,200,200,200,100,500,50,100,500,100,50,500,100,50,200,50,100,100,200,500,500,500,200,500,200,50,100,500,200,200,100,500,200,100,500,200,100,200,500,50,50,50,50,500,500,50,50,100,100,50,50,500,500,50,500,500,50,500,500,50,200,200,200,200,50,500,100,200,200,50,100,500,500,500,50,100,500"
# Node 3 random traffic
dtnsim.node[3].app.enable = true
dtnsim.node[3].app.bundlesNumber = "46,12,13,2,10,17,46,28,30,21,38,16,21,2,39,12,30,27,4,37,10,42,15,43,35,36,11,24,20,32,47,9,41,49,25,42,20,10,15,2,40,15,7,5,4,7,13,3,25,25,25,34,16,8,22,24,12,50,21,20,5,49,38,43,17,7,13,19,39,26,14,50,29,36,8,37,3,31,44,31,5,33,14,39,16,18,30,32,42,38,49,36,38,25,30,26,49,36,15,8"
dtnsim.node[3].app.start = "25,97,68,80,61,42,68,52,30,93,87,44,21,99,87,96,3,66,51,5,51,8,96,49,63,86,46,4,59,14,91,79,98,83,67,12,60,16,33,54,2,42,59,55,83,10,23,54,5,97,73,61,8,83,74,91,38,19,83,22,28,47,46,50,33,24,78,84,67,4,70,13,66,85,21,28,29,70,90,7,97,4,6,8,55,64,2,82,50,53,26,45,87,53,46,81,83,99,67,43"
dtnsim.node[3].app.destinationEid = "354,86,31,181,329,218,300,63,244,50,122,101,178,319,161,15,240,160,181,91,99,324,292,173,31,235,360,22,282,50,5,338,177,94,133,183,84,224,238,199,192,270,42,84,265,69,216,136,8,313,21,283,102,303,54,344,45,246,303,226,152,165,352,356,135,265,231,29,67,192,299,105,7,104,175,100,326,219,104,142,226,130,19,305,64,320,116,241,36,309,272,304,90,117,190,103,206,285,341,24"
dtnsim.node[3].app.size = "100,100,100,500,500,500,200,500,500,500,500,500,50,500,50,100,100,50,200,500,200,100,200,200,50,500,200,100,200,500,50,100,200,50,50,100,200,50,50,200,100,50,500,500,200,200,500,500,50,500,100,500,50,500,100,200,100,100,500,50,500,200,200,500,500,100,200,50,50,100,200,500,100,500,100,200,500,100,500,200,200,500,500,50,100,500,100,100,500,100,50,100,50,100,500,100,500,500,500,200"
# Node 4 random traffic
dtnsim.node[4].app.enable = true
dtnsim.node[4].app.bundlesNumber = "27,38,7,38,45,7,3,15,45,36,37,17,27,30,21,17,39,41,41,48,26,3,1,28,45,36,22,47,22,26,3,50,17,36,3,50,41,15,33,47,37,9,36,1,40,44,11,8,40,15,3,1,1,31,35,7,42,41,32,29,39,13,22,12,46,7,15,49,6,11,30,26,31,31,50,23,29,42,47,42,45,48,20,5,46,30,22,37,21,2,44,33,1,3,11,40,45,48,32,35"
dtnsim.node[4].app.start = "55,46,99,65,46,30,31,63,74,32,5,26,11,12,79,77,40,49,60,100,53,16,65,3,99,81,17,37,14,63,71,32,31,31,46,42,59,16,59,99,89,52,89,93,46,77,41,23,88,14,53,85,66,45,65,9,48,95,37,38,80,66,23,9,61,6,32,79,89,87,59,99,74,67,39,16,61,54,12,68,82,46,84,36,81,84,22,63,67,62,61,50,64,42,93,76,83,10,76,63"
dtnsim.node[4].app.destinationEid = "154,286,172,342,43,30,177,87,17,320,56,206,137,331,40,349,60,349,347,246,175,246,183,359,349,83,319,164,284,117,334,6,26,329,62,254,316,357,303,155,257,114,81,340,107,238,131,275,282,216,151,9,84,327,43,247,230,13,294,153,170,105,17,209,229,18,235,38,347,9,211,101,171,267,359,340,198,3,26,128,119,82,295,334,21,187,17,180,213,100,304,194,107,119,83,110,165,244,21,18"
dtnsim.node[4].app.size = "100,50,50,100,50,100,200,500,100,100,500,100,50,50,100,200,100,100,50,100,200,500,50,100,200,100,50,500,500,200,500,200,100,500,200,500,100,200,500,500,50,50,500,100,100,50,50,50,100,100,100,100,50,500,100,200,100,200,50,50,500,500,100,200,50,100,200,200,100,500,200,200,500,200,500,200,100,500,200,100,100,100,50,50,500,100,100,50,100,200,200,200,50,50,100,100,200,50,50,500"
# Node 5 random traffic
dtnsim.node[5].app.enable = true
dtnsim.node[5].app.bundlesNumber = "39,36,11,40,47,33,47,37,29,6,3,17,20,30,34,32,29,16,25,15,24,13,12,34,1,12,32,12,32,22,6,7,50,14,32,39,31,9,17,46,21,30,45,34,49,36,15,14,12,40,44,33,10,33,46,39,27,9,40,25,32,48,12,12,27,3,32,14,11,17,43,12,47,24,8,27,13,18,27,11,39,23,30,24,20,44,29,21,50,32,49,7,3,24,23,14,13,24,17,21"
dtnsim.node[5].app.start = "67,48,42,5,21,46,42,87,55,79,31,23,24,15,29,90,41,19,96,80,24,79,13,56,67,6,90,86,3,7,65,55,23,40,66,59,45,66,29,53,9,56,66,4,13,73,71,49,10,99,25,75,38,26,7,64,98,7,28,87,51,62,49,66,11,6,8,49,21,25,96,10,50,43,42,97,95,25,75,80,79,20,7,89,70,92,36,100,46,57,86,2,14,21,4,28,5,36,91,22"
dtnsim.node[5].app.destinationEid = "16,103,151,255,247,103,360,166,126,139,341,62,55,219,185,176,218,1,2,324,166,54,1,225,273,290,103,232,100,69,345,32,24,230,258,32,160,232,336,281,48,315,40,248,270,242,164,323,256,177,275,107,22,129,253,240,345,158,137,172,342,356,11,106,233,251,137,6,270,71,235,2,162,329,40,258,63,216,136,179,55,267,88,180,80,79,22,133,94,47,319,246,263,339,13,64,115,236,67,225"
dtnsim.node[5].app.size = "50,50,500,200,50,200,100,200,100,50,200,100,100,200,50,100,200,500,200,50,100,50,50,100,200,500,100,200,200,200,200,100,200,500,50,50,500,500,500,50,50,200,50,100,50,50,500,50,500,100,500,200,200,100,200,200,100,200,50,100,100,500,50,500,100,50,50,100,100,500,50,200,200,50,50,200,200,50,50,200,100,200,50,50,500,200,500,100,200,100,500,50,100,100,100,200,100,50,100,200"
# Node 6 random traffic
dtnsim.node[6].app.enable = true
dtnsim.node[6].app.bundlesNumber = "22,39,21,18,7,46,49,32,25,18,13,6,13,18,48,22,21,43,47,35,12,37,7,13,9,46,24,22,17,27,34,15,37,37,11,9,49,13,41,2,44,9,37,36,13,46,41,6,45,12,39,27,17,22,32,3,15,4,45,45,49,43,5,31,46,30,43,12,50,3,14,34,2,42,14,6,15,19,26,26,33,32,19,29,37,28,15,40,40,4,49,48,43,27,36,22,14,21,11,22"
dtnsim.node[6].app.start = "30,82,26,72,94,3,13,17,17,89,95,87,38,42,77,22,23,40,3,4,30,62,62,64,60,30,96,5,70,45,82,17,62,16,100,44,67,39,22,55,94,97,25,70,13,86,19,38,18,95,37,25,1,22,90,93,84,52,61,48,53,69,30,18,97,9,79,25,96,87,66,28,75,56,43,46,18,13,37,37,24,86,28,97,79,42,70,85,84,69,77,99,77,51,44,1,87,100,84,5"
dtnsim.node[6].app.destinationEid = "195,243,353,130,59,210,338,278,64,135,5,234,346,152,211,91,313,62,31,213,242,349,146,109,148,175,18,155,247,36,334,98,305,292,235,165,132,247,194,119,250,311,75,199,2,192,183,200,125,217,357,63,133,242,8,26,301,13,69,125,288,331,80,146,221,165,214,276,225,103,344,242,263,133,235,150,207,171,65,58,347,217,64,119,167,38,277,270,100,286,95,319,271,238,254,131,275,233,74,28"
dtnsim.node[6].app.size = "100,200,100,100,50,200,200,50,200,200,100,500,500,100,100,50,50,500,50,50,500,50,200,200,500,50,200,100,200,500,200,200,100,500,500,200,200,50,100,500,500,200,50,100,500,100,200,200,100,100,50,200,50,50,100,500,100,100,500,50,500,200,500,50,100,100,500,100,200,100,50,100,100,100,500,200,100,100,500,100,500,500,200,500,100,50,50,50,500,200,50,100,100,500,100,50,500,200,50,100"
# Node 7 random traffic
dtnsim.node[7].app.enable = true
dtnsim.node[7].app.bundlesNumber = "50,13,17,34,44,34,1,37,38,21,38,45,3,36,46,16,6,11,32,22,30,3,37,33,19,47,6,21,34,20,41,40,27,36,33,19,28,23,43,13,18,20,22,44,5,3,47,3,1,40,39,25,31,39,40,15,49,34,41,23,25,3,2,14,13,42,43,16,47,35,48,1,49,8,9,6,23,19,16,50,5,2,8,17,21,30,50,2,31,36,12,33,19,21,40,29,21,23,21,6"
dtnsim.node[7].app.start = "46,62,77,65,68,12,79,10,86,88,23,7,84,48,32,15,3,11,79,15,38,10,84,22,20,16,69,76,87,94,79,5,32,31,23,96,85,61,31,76,74,25,94,79,20,57,85,29,11,94,17,20,36,13,2,72,84,58,88,8,43,63,33,64,8,1,29,76,4,13,59,32,29,51,53,21,2,14,78,24,75,62,15,99,57,5,12,13,73,71,86,43,14,85,60,1,77,91,13,32"
dtnsim.node[7].app.destinationEid = "308,91,228,298,327,73,49,180,294,128,110,294,146,83,31,149,341,94,106,266,71,342,249,172,250,282,280,222,238,3,209,68,114,76,206,95,289,225,271,219,321,186,176,100,90,40,82,6,239,200,253,125,348,303,231,216,95,147,232,160,228,67,245,60,224,216,307,43,24,113,49,354,118,54,153,96,311,89,57,273,157,352,232,92,41,315,357,307,183,327,225,101,202,326,310,325,11,121,215,188"
dtnsim.node[7].app.size = "100,500,50,200,500,100,200,500,50,200,200,50,200,500,500,50,100,50,500,200,500,500,500,100,200,50,200,500,50,200,50,50,100,100,200,50,200,100,50,50,500,500,50,100,200,100,50,100,50,100,200,500,100,500,100,500,50,200,50,500,500,100,50,200,100,500,200,50,500,200,200,100,200,50,100,50,200,500,100,200,50,500,200,200,50,200,500,500,500,50,500,50,100,100,50,500,100,50,50,100"
# Node 8 random traffic
dtnsim.node[8].app.enable = true
dtnsim.node[8].app.bundlesNumber = "39,9,23,16,48,14,39,50,42,50,8,9,46,37,18,26,5,23,8,49,20,15,45,30,21,7,48,10,41,31,47,24,27,19,30,48,38,30,26,50,25,35,24,13,34,21,46,39,26,21,25,2,33,11,43,32,22,8,43,24,7,45,38,6,28,4,37,47,45,44,12,22,4,49,36,40,28,48,49,32,26,17,4,1,41,21,32,23,34,46,32,15,38,9,7,11,18,5,34,7"
dtnsim.node[8].app.start = "29,75,8,32,73,18,44,5,72,19,3,56,77,28,16,69,5,51,36,20,7,19,98,100,28,19,35,47,16,30,3,94,99,85,22,96,93,30,25,40,51,62,1,80,86,95,90,29,15,30,21,69,16,59,72,31,86,18,93,78,95,4,64,29,98,65,64,30,76,68,16,92,85,26,20,94,79,87,56,70,85,62,80,82,9,3,22,81,99,36,17,27,22,68,37,51,60,35,20,84"
dtnsim.node[8].app.destinationEid = "207,243,202,355,284,140,257,214,112,215,78,317,89,158,120,190,286,84,158,352,123,286,161,217,353,93,307,14,154,345,261,291,27,272,221,156,315,182,2,52,238,138,113,99,340,114,336,65,353,78,270,32,81,166,189,161,119,181,274,74,238,218,306,35,217,118,353,307,93,30,208,45,133,6,343,107,38,296,357,172,270,172,103,350,23,334,58,329,202,301,308,258,61,22,182,241,225,16,333,21"
dtnsim.node[8].app.size = "50,200,100,100,200,100,200,100,50,200,200,200,200,100,100,500,50,500,50,500,500,200,50,200,500,200,50,50,50,50,100,200,100,100,200,100,500,100,50,100,50,100,100,200,500,100,50,500,100,50,100,50,100,200,50,200,50,50,50,500,200,200,500,200,500,200,100,200,50,200,50,50,500,100,100,200,500,500,100,100,50,500,200,200,500,100,100,50,500,50,500,200,200,100,200,50,50,500,500,100"
# Node 9 random traffic
dtnsim.node[9].app.enable = true
dtnsim.node[9].app.bundlesNumber = "44,8,10,21,18,48,43,43,6,15,38,27,21,50,1,26,14,7,18,11,44,37,48,20,6,14,10,20,12,48,2,21,28,46,28,1,20,45,16,1,23,11,2,9,19,2,46,8,10,22,7,47,21,7,28,31,45,11,25,50,48,47,22,44,8,49,47,7,38,9,49,34,26,4,9,19,7,18,19,3,45,17,27,4,47,39,8,5,45,24,40,20,6,16,10,4,45,18,42,11"
dtnsim.node[9].app.start = "93,71,7,16,66,47,52,23,57,45,20,90,4,88,31,74,42,31,58,47,13,80,47,57,81,63,97,7,26,42,36,78,28,11,55,44,50,99,67,69,87,89,13,22,28,14,53,37,44,27,33,98,99,15,97,73,28,45,33,30,75,95,1,29,18,72,70,64,67,18,17,57,35,71,31,22,71,17,93,78,60,85,7,72,80,95,41,48,55,1,96,69,78,10,52,60,51,37,61,97"
dtnsim.node[9].app.destinationEid = "340,117,284,129,88,25,43,27,55,218,298,190,98,68,65,179,135,25,100,80,294,122,150,292,75,261,6,354,26,140,321,236,252,262,68,82,129,151,117,339,237,12,189,328,130,172,35,135,258,28,136,189,274,208,125,58,194,35,131,11,175,287,36,6,247,84,93,209,21,38,219,335,215,48,289,184,234,5,195,4,333,45,23,62,61,171,90,200,313,304,35,101,273,75,339,235,344,34,44,296"
dtnsim.node[9].app.size = "500,500,50,500,100,500,50,200,100,50,100,500,100,50,100,50,500,50,500,200,100,100,50,50,200,500,500,50,100,50,100,200,100,500,50,500,500,200,50,50,500,500,200,200,500,100,200,500,200,50,100,500,50,500,100,50,200,100,500,200,200,500,200,100,200,200,500,100,50,200,200,500,100,100,200,100,50,100,200,500,50,200,500,500,50,200,50,500,500,50,500,200,50,100,200,50,50,200,500,100"
# Node 10 random traffic
dtnsim.node[10].app.enable = true
dtnsim.node[10].app.bundlesNumber = "40,4,32,10,2,41,33,20,43,27,9,50,23,2,1,30,49,23,16,39,49,22,40,47,1,21,14,42,31,6,19,10,39,14,28,8,6,36,24,40,3,22,40,4,37,14,24,8,45,36,38,15,19,26,50,12,36,41,17,32,23,16,46,29,5,25,32,47,16,11,45,4,17,2,40,48,37,13,12,48,17,25,44,42,46,32,14,44,11,31,22,25,10,10,9,49,20,22,1,12"
dtnsim.node[10].app.start = "88,90,100,99,60,16,86,64,80,17,72,1,17,72,83,42,34,29,85,44,36,21,39,15,90,55,70,85,64,79,64,99,7,2,78,47,90,83,21,74,14,62,67,60,70,9,76,56,90,18,80,3,5,47,57,88,30,32,93,21,70,19,94,20,58,88,6,93,60,87,97,6,19,51,81,10,73,12,92,23,54,94,67,26,52,39,12,35,61,79,55,46,4,24,25,21,25,99,12,82"
dtnsim.node[10].app.destinationEid = "209,190,7,280,236,117,5,55,186,39,246,323,175,247,5,92,155,326,303,181,287,126,56,3,282,1,193,94,8,61,2,147,122,277,81,312,27,171,289,98,292,3,168,84,112,170,146,244,132,46,289,159,180,38,350,12,145,358,210,39,125,279,53,306,275,244,197,3,206,42,87,172,160,347,308,281,281,90,91,173,47,124,79,6,144,123,194,44,299,301,279,31,326,325,353,227,76,75,3,70"
dtnsim.node[10].app.size = "500,50,100,100,500,100,200,100,100,200,100,100,100,200,50,200,50,100,50,100,200,200,50,200,50,500,500,50,500,500,500,100,200,500,500,500,200,50,50,50,100,500,100,200,500,50,200,500,500,50,200,50,200,200,200,500,100,200,200,200,200,200,50,500,100,200,200,500,50,100,500,200,50,100,100,200,50,200,50,50,200,500,50,200,100,500,100,100,100,500,50,200,200,500,200,200,100,50,500,200"
# Node 11 random traffic
dtnsim.node[11].app.enable = true
dtnsim.node[11].app.bundlesNumber = "21,6,39,30,12,49,42,33,16,25,48,8,1,47,25,47,12,6,14,9,1,30,4,35,15,36,42,45,33,19,42,5,32,13,22,4,22,38,49,8,4,32,15,30,37,18,8,21,6,11,14,25,8,17,45,25,43,17,28,10,8,31,46,26,7,32,50,6,25,22,18,31,32,23,29,2,10,29,20,12,21,12,29,10,22,20,46,7,30,8,2,40,49,11,29,48,22,38,20,48"
dtnsim.node[11].app.start = "14,17,85,93,26,45,41,15,71,11,59,57,12,41,81,66,75,71,82,66,34,62,49,69,13,89,66,69,83,98,50,24,86,92,77,65,11,38,11,77,1,27,39,61,91,76,64,95,84,74,93,44,75,35,79,53,16,64,46,77,32,21,79,11,44,91,74,36,75,65,29,59,31,30,14,19,67,15,96,64,34,61,36,89,54,66,67,53,88,70,40,14,33,89,30,100,100,50,4,52"
dtnsim.node[11].app.destinationEid = "211,149,78,357,89,359,178,311,247,153,153,52,70,149,303,242,60,79,142,106,357,51,168,88,284,88,254,53,247,196,50,120,33,79,53,158,261,231,19,93,336,304,54,222,243,107,346,36,172,42,213,37,347,220,327,107,255,162,46,360,327,122,174,230,342,325,306,194,6,28,204,85,122,300,72,65,271,305,210,196,315,219,49,111,143,142,210,340,350,237,186,97,319,64,225,337,83,349,121,309"
dtnsim.node[11].app.size = "200,500,200,50,100,500,50,200,500,50,50,100,500,200,200,200,200,500,100,200,200,200,100,100,50,100,50,100,200,500,200,500,500,200,100,200,50,100,100,100,50,500,500,200,200,500,200,50,200,100,200,200,200,100,50,200,500,200,50,500,50,100,500,100,100,500,200,500,200,100,100,200,500,500,500,500,500,500,200,200,500,100,100,500,100,200,50,500,50,500,500,100,50,100,50,50,500,50,50,500"
# Node 12 random traffic
dtnsim.node[12].app.enable = true
dtnsim.node[12].app.bundlesNumber = "17,25,14,34,38,29,29,48,24,3,12,32,49,16,49,39,29,50,45,40,3,3,20,45,37,29,31,8,10,9,8,29,41,17,28,50,18,2,31,13,35,24,45,37,8,39,11,23,31,31,39,46,14,47,13,17,7,29,44,24,26,32,27,47,25,3,50,16,27,33,32,44,6,46,26,15,43,15,30,35,50,22,32,33,23,49,50,11,23,3,48,40,25,28,8,11,6,27,12,17"
dtnsim.node[12].app.start = "21,60,5,26,62,57,73,98,24,78,82,70,90,82,74,98,57,67,23,57,55,31,9,100,46,45,6,37,27,49,46,99,73,45,16,57,42,87,23,7,16,6,62,100,89,11,40,55,73,90,89,5,81,82,79,28,17,80,53,43,9,100,48,83,30,45,98,11,82,46,37,39,28,91,49,82,81,38,89,27,38,95,27,40,90,52,56,100,62,15,30,96,86,23,43,71,51,30,75,10"
dtnsim.node[12].app.destinationEid = "31,357,15,86,253,48,34,180,97,16,55,310,302,182,334,136,39,48,282,322,233,349,236,285,53,309,49,274,239,331,241,41,123,188,302,46,290,323,194,324,23,318,89,40,200,148,147,356,322,20,65,330,138,242,24,162,192,265,288,204,173,301,191,109,360,185,199,2,79,74,64,161,48,144,166,232,153,263,322,61,278,349,308,302,214,276,158,37,159,241,354,238,162,312,352,58,272,324,90,76"
dtnsim.node[12].app.size = "200,100,50,500,200,200,100,100,500,200,500,500,200,100,200,100,100,200,100,50,50,200,50,500,50,100,100,500,100,50,50,200,200,50,100,500,100,100,200,50,100,200,500,50,500,100,200,50,100,50,200,100,50,500,500,500,50,200,200,100,50,200,50,200,200,100,100,50,50,100,200,100,50,100,50,500,200,50,50,200,500,200,100,100,50,200,50,500,500,50,50,500,100,200,100,200,500,500,100,100"
# Node 13 random traffic
dtnsim.node[13].app.enable = true
dtnsim.node[13].app.bundlesNumber = "3,36,26,39,12,30,17,27,36,36,39,32,24,44,13,6,8,40,29,50,28,12,14,7,14,28,30,24,23,48,1,20,45,39,49,6,22,22,12,32,18,23,8,2,21,35,1,48,48,42,18,47,24,22,49,5,7,15,48,26,21,38,17,25,40,21,13,4,50,7,35,40,9,23,46,4,34,25,30,7,30,46,38,4,11,48,44,14,17,18,44,8,31,1,41,17,23,12,14,31"
dtnsim.node[13].app.start = "69,56,25,74,51,57,23,76,86,73,62,3,11,61,38,96,70,37,4,17,68,42,9,3,59,60,19,34,25,57,57,97,12,72,61,21,46,8,59,92,63,80,83,94,35,8,10,29,59,36,45,73,43,62,52,80,8,40,84,29,28,19,17,61,22,26,39,47,66,92,6,10,80,14,47,5,80,100,65,51,62,85,76,97,48,73,30,12,68,94,26,11,97,67,76,24,70,56,68,25"
dtnsim.node[13].app.destinationEid = "135,354,331,244,295,2,42,352,156,196,317,298,208,124,90,327,350,344,342,78,355,158,73,254,247,134,329,115,138,211,251,31,48,89,240,86,96,173,72,342,255,169,100,251,191,10,276,29,106,17,297,122,144,348,345,236,148,35,126,7,245,92,221,269,106,221,313,349,238,121,90,48,256,112,28,67,289,7,306,176,164,225,54,356,194,47,172,119,256,352,214,274,187,132,27,182,350,34,14,202"
dtnsim.node[13].app.size = "200,500,50,500,200,200,500,100,200,200,100,100,500,500,200,100,500,500,200,200,50,500,50,100,100,200,50,200,500,200,200,100,100,200,500,100,200,50,500,500,500,50,200,50,200,500,100,100,200,50,200,500,50,500,100,100,50,50,200,100,200,100,500,200,200,100,100,500,50,200,100,50,200,200,500,100,50,200,500,100,200,50,200,200,50,500,200,50,200,100,100,100,500,100,50,200,200,500,100,500"
# Node 14 random traffic
dtnsim.node[14].app.enable = true
dtnsim.node[14].app.bundlesNumber = "8,43,35,42,27,14,14,12,49,45,4,36,5,19,6,15,6,25,9,44,21,23,34,27,40,4,34,2,43,6,31,39,24,45,9,8,8,14,3,41,24,32,4,34,23,25,23,10,7,30,6,6,13,30,46,4,32,19,20,1,30,37,42,32,16,42,25,35,18,19,24,2,13,7,23,16,20,6,13,32,29,14,14,34,16,50,11,36,25,44,34,16,11,45,47,36,19,26,12,1"
dtnsim.node[14].app.start = "34,19,44,31,6,56,93,42,20,87,28,62,86,20,45,33,5,50,96,38,93,85,53,73,86,10,47,82,94,49,13,14,98,8,59,45,26,33,50,68,52,81,88,23,15,7,17,16,74,22,13,66,67,100,67,30,56,2,7,10,88,3,73,81,20,41,6,65,66,46,78,63,43,77,83,53,66,15,43,59,58,35,91,68,29,36,6,88,92,93,26,63,21,81,44,7,11,22,52,32"
dtnsim.node[14].app.destinationEid = "76,108,319,43,302,130,253,63,358,291,12,55,60,268,322,312,50,304,103,214,286,126,158,243,301,320,167,111,3,286,68,186,4,294,241,128,9,176,21,250,190,136,122,284,112,334,179,40,103,262,333,275,93,284,109,273,3,102,196,27,49,92,64,261,168,51,113,351,3,21,216,127,262,204,162,112,68,295,145,121,336,143,233,309,276,305,110,80,141,100,196,24,25,235,74,133,351,187,347,307"
dtnsim.node[14].app.size = "50,50,100,50,50,200,50,100,200,100,100,100,50,200,500,500,500,200,50,500,100,200,100,500,500,100,200,50,100,200,100,50,500,500,200,500,500,100,200,200,100,200,500,200,500,200,500,100,500,100,500,100,100,200,200,50,50,500,200,500,200,100,200,500,500,500,200,100,200,50,100,500,100,200,500,200,100,200,50,200,50,100,100,50,200,100,500,100,500,200,500,200,200,50,50,50,100,500,100,50"
# Node 15 random traffic
dtnsim.node[15].app.enable = true
dtnsim.node[15].app.bundlesNumber = "9,38,15,25,49,15,43,5,11,1,46,24,3,43,2,46,14,19,35,14,28,29,24,16,7,2,7,6,13,17,23,15,11,30,26,48,33,19,30,28,45,29,25,11,14,3,6,38,39,9,10,32,42,7,32,41,31,1,50,46,5,17,3,1,22,46,18,27,9,39,39,13,45,3,47,38,6,50,4,36,16,18,27,29,30,40,15,22,42,21,19,1,50,40,50,22,9,18,43,3"
dtnsim.node[15].app.start = "33,72,44,7,11,31,31,48,25,60,23,27,70,66,72,96,60,70,80,82,34,14,96,72,51,37,17,70,24,15,78,59,11,84,70,76,70,26,8,71,97,58,28,44,23,17,42,22,77,58,67,4,54,81,25,98,3,17,82,68,43,55,80,34,41,62,44,50,50,62,77,42,3,10,45,34,51,5,95,23,67,97,86,14,83,41,29,88,57,99,11,53,12,20,97,21,77,41,58,41"
dtnsim.node[15].app.destinationEid = "256,284,252,148,223,189,196,339,209,61,13,176,39,50,217,28,262,173,134,71,8,288,135,334,279,84,170,161,318,25,224,63,239,168,115,207,87,59,94,343,109,23,304,211,1,247,182,74,114,290,359,245,351,356,214,10,271,1,351,329,309,199,354,304,345,184,194,351,103,185,275,241,55,277,341,22,251,172,162,295,76,219,166,64,345,151,306,129,11,113,35,166,65,205,3,35,264,122,297,35"
dtnsim.node[15].app.size = "100,200,100,50,100,500,50,50,50,200,500,100,100,200,500,50,100,100,500,50,50,500,100,100,100,100,200,50,50,50,50,500,200,200,50,50,100,200,100,500,50,50,50,50,200,500,50,500,50,50,200,50,200,50,200,100,100,200,100,500,500,50,200,50,100,500,500,200,100,50,50,100,500,100,50,100,100,500,200,500,500,50,200,50,50,50,200,50,50,100,100,100,500,200,100,200,100,50,50,50"
# Node 16 random traffic
dtnsim.node[16].app.enable = true
dtnsim.node[16].app.bundlesNumber = "23,21,48,9,43,49,23,22,10,32,3,13,15,37,18,19,49,25,1,13,32,23,46,22,16,23,37,27,49,25,39,30,5,3,36,7,48,33,13,41,14,16,15,46,39,42,37,4,19,23,12,44,43,32,23,28,4,10,47,13,10,2,28,31,26,40,46,47,44,40,7,45,1,45,35,8,1,40,30,1,39,19,33,8,24,50,10,31,45,42,23,17,16,17,44,15,5,29,38,2"
dtnsim.node[16].app.start = "75,98,61,35,61,80,20,71,74,88,71,2,79,93,94,91,41,37,93,35,6,54,29,47,40,53,75,29,24,23,19,88,73,83,99,38,59,58,35,14,20,65,30,6,60,62,20,23,32,59,79,69,71,89,78,52,56,14,94,6,14,78,42,36,33,39,21,72,35,6,57,87,73,62,53,74,85,69,87,11,93,54,49,27,47,9,86,27,33,19,57,11,24,58,70,64,67,32,5,88"
dtnsim.node[16].app.destinationEid = "271,90,247,277,255,303,77,55,98,201,263,189,262,142,128,167,346,129,313,204,320,135,132,242,231,218,242,341,169,223,170,126,287,185,318,21,342,274,61,146,30,104,270,176,334,69,348,268,37,118,48,324,7,273,346,88,42,99,111,358,180,313,172,253,189,107,272,159,350,91,50,278,56,117,314,102,159,37,243,194,48,300,122,246,352,336,262,283,318,6,127,272,153,7,27,187,327,13,262,67"
dtnsim.node[16].app.size = "50,200,500,100,200,200,100,100,100,500,50,100,500,100,500,200,100,100,200,200,200,500,500,50,50,50,500,200,200,200,100,100,500,200,500,50,200,100,200,100,200,50,100,200,200,50,50,200,50,200,500,100,50,100,200,500,100,500,50,200,500,200,500,100,200,100,200,50,500,200,50,200,100,200,200,100,50,200,500,50,100,50,100,100,100,200,200,50,500,500,200,500,50,200,100,200,500,200,500,500"
# Node 17 random traffic
dtnsim.node[17].app.enable = true
dtnsim.node[17].app.bundlesNumber = "50,4,32,34,44,47,38,5,48,26,7,29,8,24,41,9,11,45,24,33,35,32,48,40,12,4,5,17,19,45,16,9,42,43,16,18,50,44,32,9,37,32,32,8,1,2,6,39,3,37,29,48,50,39,32,10,39,30,49,17,17,12,32,2,26,46,10,50,25,23,26,48,20,39,45,13,21,25,37,9,17,25,1,36,39,47,33,48,14,45,14,50,41,31,39,38,7,40,8,21"
dtnsim.node[17].app.start = "83,49,23,90,15,60,69,48,50,87,70,42,38,28,35,79,93,97,16,71,78,92,52,94,18,89,67,9,45,22,17,47,18,27,42,97,75,16,11,66,79,36,80,23,29,17,99,41,1,40,29,90,75,53,11,71,12,92,73,95,10,76,19,72,34,80,2,63,18,79,54,31,66,59,29,51,4,81,54,60,15,82,59,55,56,82,98,29,23,41,59,31,80,30,17,100,35,61,5,22"
dtnsim.node[17].app.destinationEid = "276,112,12,23,241,120,1,218,217,227,257,167,100,252,46,345,18,169,236,35,246,176,6,215,279,123,357,9,88,49,269,156,343,349,300,173,325,238,136,185,146,198,309,323,151,328,286,270,330,357,248,214,357,200,160,254,345,189,147,119,44,41,93,165,218,307,36,340,160,312,265,298,284,342,75,62,190,349,193,96,305,169,325,119,222,45,97,140,30,347,50,30,134,275,328,328,334,230,15,194"
dtnsim.node[17].app.size = "50,500,200,500,500,100,50,200,500,50,200,100,200,100,500,500,50,200,500,100,50,100,100,200,100,200,500,50,200,100,50,500,200,200,50,100,500,200,100,50,500,50,200,500,500,500,50,50,500,200,100,100,100,500,500,100,500,500,200,200,200,100,50,100,200,50,50,50,500,200,200,100,500,500,100,100,500,100,200,500,100,100,100,200,100,100,500,200,100,200,50,200,50,100,500,500,100,50,50,200"
# Node 18 random traffic
dtnsim.node[18].app.enable = true
dtnsim.node[18].app.bundlesNumber = "11,24,25,13,19,21,34,3,3,40,30,32,5,42,19,14,3,15,41,47,27,50,36,3,40,37,45,1,3,22,21,27,34,2,8,24,34,44,49,48,11,24,22,26,26,47,13,29,33,2,16,50,8,39,38,2,35,41,15,4,21,22,43,33,44,23,16,6,28,5,21,30,35,31,32,3,6,21,9,32,23,46,31,44,30,35,22,1,15,46,18,17,31,33,49,24,8,27,28,42"
dtnsim.node[18].app.start = "97,15,22,83,35,52,2,24,22,41,64,89,59,39,18,6,38,23,36,64,47,82,38,90,62,98,21,35,1,75,4,54,25,27,4,85,60,15,100,44,73,72,72,8,94,44,46,38,22,66,51,76,59,18,4,45,98,65,31,76,50,16,10,18,72,77,12,100,22,83,14,18,90,53,14,26,88,8,43,64,17,39,26,33,45,77,14,17,86,39,99,30,31,62,79,3,80,16,78,63"
dtnsim.node[18].app.destinationEid = "131,230,134,265,233,233,73,112,331,171,3,232,9,194,71,92,54,71,216,117,191,277,72,20,358,105,167,211,200,356,7,171,243,315,188,117,148,335,192,165,182,44,20,104,189,117,106,207,122,360,153,73,58,219,252,115,12,104,308,235,180,39,138,114,46,351,212,35,243,286,177,195,353,92,227,270,36,158,168,137,83,85,237,97,339,276,292,17,184,176,160,339,207,217,164,273,24,216,309,60"
dtnsim.node[18].app.size = "500,200,500,500,200,500,50,200,200,500,100,50,500,200,200,500,500,100,200,100,200,100,500,50,100,100,100,50,200,200,100,200,100,50,50,100,200,100,200,50,100,50,50,500,100,100,200,100,200,100,100,100,200,50,500,500,500,50,500,200,100,200,200,200,500,50,500,500,50,500,200,100,500,500,500,200,50,200,100,100,200,50,500,500,50,50,50,500,200,50,100,200,50,100,50,100,200,200,100,500"
# Node 19 random traffic
dtnsim.node[19].app.enable = true
dtnsim.node[19].app.bundlesNumber = "28,18,47,13,27,44,20,9,1,29,14,17,36,7,16,41,33,47,46,29,16,22,29,31,12,44,41,4,29,4,25,43,43,27,17,42,47,43,38,43,24,36,40,48,3,29,48,22,3,9,46,23,24,44,2,30,11,35,25,31,20,30,20,30,38,21,13,38,31,13,11,46,28,42,13,46,27,26,34,50,19,40,17,19,44,45,9,12,5,47,45,25,7,20,28,43,49,42,12,17"
dtnsim.node[19].app.start = "50,94,5,39,30,84,68,55,47,1,27,59,4,78,92,49,24,99,45,32,64,68,6,39,74,69,52,56,55,65,5,96,2,28,11,48,83,68,90,13,84,52,78,91,42,46,64,15,43,67,73,86,7,13,7,92,69,38,10,96,27,59,94,74,69,58,34,66,80,67,37,28,96,25,86,37,90,21,8,22,56,4,18,93,18,2,33,17,63,50,4,3,95,36,84,44,37,73,92,19"
dtnsim.node[19].app.destinationEid = "329,147,47,250,265,105,87,94,21,202,182,79,223,269,247,325,148,166,278,337,12,186,325,177,338,288,256,281,66,339,302,166,189,87,56,355,344,154,116,68,47,15,146,44,323,291,92,336,324,22,299,62,146,127,338,186,357,80,344,134,280,297,268,29,30,197,271,318,296,73,159,120,293,203,167,140,265,240,201,274,210,289,150,197,2,311,54,239,349,204,229,81,279,306,250,242,62,121,203,83"
dtnsim.node[19].app.size = "500,200,500,50,50,200,200,100,200,200,500,200,500,200,500,100,50,200,200,500,500,500,100,50,500,50,100,200,50,500,50,500,500,200,200,500,100,50,500,200,50,100,200,100,500,100,50,100,100,100,200,500,100,100,50,500,100,100,50,500,500,100,50,200,200,500,100,100,50,200,50,200,500,500,500,50,50,200,50,50,200,200,200,50,200,50,100,200,50,200,50,500,100,100,500,500,500,500,100,100"
# Node 20 random traffic
dtnsim.node[20].app.enable = true
dtnsim.node[20].app.bundlesNumber = "15,3,35,39,24,2,43,34,29,44,40,46,38,42,20,7,45,13,14,42,28,10,45,13,29,46,9,46,49,29,23,9,41,15,43,8,39,32,5,32,29,20,50,35,44,39,10,3,24,14,28,49,46,47,38,42,20,13,35,34,16,9,40,38,5,43,7,10,44,44,33,2,42,40,40,48,50,14,48,29,31,37,50,17,7,48,32,20,20,23,36,19,49,23,22,48,43,12,26,22"