[General]
network = src.dtnsim										
repeat = 1
allow-object-stealing-on-deletion = true

# Simulation end time
sim-time-limit = 84600s

# Nodes quantity (identifiers (EiDs) matches their index, EiD=0 is ignored)			
dtnsim.nodesNumber = 120
dtnsim.node[*].icon = "satellite"

# Nodes's failure rates
dtnsim.node[*].fault.enable = true
dtnsim.node[*].fault.meanTTF = 90s
dtnsim.node[*].fault.meanTTR = 10s

# Mobility
dtnsim.node[*].hasMobility = true
dtnsim.node[*].norad.satIndex = parentIndex()
dtnsim.node[*].norad.satName = "sat"
**.updateInterval = 20s
**.numOfSats = 120
**.satPerPlane = 10
**.altitude = 540
**.planes = 12
**.phaseOffset = 7

dtnsim.node[*].dtn.routing = "antop"
dtnsim.node[*].dtn.printRoutingDebug = true

# --- Random Traffic Configuration ---
# Node 1 random conversational traffic
dtnsim.node[1].app.enable = true
dtnsim.node[1].app.bundlesNumber = "1,3,5,4,3,2,3,1,1,3,2,1,2,2,2,1,4,3,1,2,1,5,5,1,1,3,3,3,2,1,1,4,1,4,2,4,5,1,5,2,2,1,4,5,4,3,5,2,1,3,5,1,5,1,3,5,5,3,4,5,1,4,2,2,4,2,2,2,1,5,5,5,4,5,5,3,3,1,3,2,3,2,4,2,1,2,3,1,2,3,3,2,2,4,4,2,3,2,2,2"
dtnsim.node[1].app.start = "13,10,15,4,15,4,12,11,19,15,12,15,9,13,9,9,9,13,10,15,6,10,3,8,13,19,16,20,9,8,11,2,12,5,13,18,8,4,18,2,10,15,9,10,13,4,5,10,7,5,3,1,5,14,15,11,14,13,10,10,5,7,17,11,19,3,4,19,15,13,19,16,5,13,5,10,5,20,18,10,7,20,8,19,16,5,15,10,7,3,13,17,8,20,8,14,9,16,9,16"
dtnsim.node[1].app.destinationEid = "2,2,2,2,2,2,2,2,2,2,2,2,2,2,2,2,2,2,2,2,2,2,2,2,2,2,2,2,2,2,2,2,2,2,2,2,2,2,2,2,2,2,2,2,2,2,2,2,2,2,2,2,2,2,2,2,2,2,2,2,2,2,2,2,2,2,2,2,2,2,2,2,2,2,2,2,2,2,2,2,2,2,2,2,2,2,2,2,2,2,2,2,2,2,2,2,2,2,2,2"
dtnsim.node[1].app.size = "200,100,100,500,100,50,50,500,50,50,200,200,200,50,500,50,50,500,500,500,100,50,100,500,200,50,200,500,50,200,100,100,200,100,500,50,200,100,50,200,200,500,100,500,500,200,100,50,500,200,100,50,100,500,200,100,100,100,50,50,100,200,50,200,100,50,500,100,200,500,50,500,200,50,200,500,50,500,500,50,500,500,500,500,50,100,100,100,200,200,50,100,500,200,500,50,200,200,200,100"
# Node 2 random conversational traffic
dtnsim.node[2].app.enable = true
dtnsim.node[2].app.bundlesNumber = "3,5,3,5,1,5,2,5,5,5,5,3,5,2,1,3,5,5,5,3,4,1,2,3,5,1,4,4,1,4,1,2,1,5,2,5,3,3,4,3,2,3,5,5,3,5,3,4,3,1,1,3,4,1,3,3,5,5,2,4,1,4,5,2,3,2,1,3,5,4,4,2,2,5,5,5,4,5,5,1,3,1,4,4,1,5,2,5,3,4,4,5,2,3,2,1,3,5,5,2"
dtnsim.node[2].app.start = "20,16,17,13,20,16,13,19,17,19,8,9,18,20,15,9,16,4,14,16,19,9,20,5,11,16,11,19,12,6,16,7,7,20,20,13,15,18,19,12,12,4,16,20,17,11,19,15,20,19,16,11,20,17,10,18,8,10,20,20,11,17,17,5,13,19,5,19,7,4,8,8,19,18,3,3,9,1,16,5,6,4,11,18,13,20,2,20,2,20,6,2,2,1,9,3,14,19,8,14"
dtnsim.node[2].app.destinationEid = "1,1,1,1,1,1,1,1,1,1,1,1,1,1,1,1,1,1,1,1,1,1,1,1,1,1,1,1,1,1,1,1,1,1,1,1,1,1,1,1,1,1,1,1,1,1,1,1,1,1,1,1,1,1,1,1,1,1,1,1,1,1,1,3,3,3,3,3,3,3,3,3,3,3,3,3,3,3,3,3,3,3,3,3,3,3,3,3,3,3,3,3,3,3,3,3,3,3,3,3"
dtnsim.node[2].app.size = "50,100,50,100,200,500,50,500,200,50,50,200,50,500,500,50,200,200,100,100,200,50,200,100,200,50,50,50,500,500,100,100,500,200,500,500,500,100,100,500,500,100,200,100,50,100,100,500,500,200,500,200,500,500,200,200,100,50,200,500,500,100,200,200,100,100,500,100,500,50,500,200,50,100,100,50,500,500,500,100,100,50,100,500,500,50,50,200,100,50,500,500,100,200,200,200,200,500,200,100"
# Node 3 random conversational traffic
dtnsim.node[3].app.enable = true
dtnsim.node[3].app.bundlesNumber = "5,2,3,2,1,5,3,1,3,1,3,2,2,2,3,3,5,2,3,4,4,5,3,2,3,2,5,2,5,5,3,1,5,2,1,1,5,5,2,1,5,3,4,4,5,5,1,4,3,5,1,5,3,3,3,1,1,3,1,2,3,5,3,4,1,4,5,4,5,1,2,1,4,1,3,5,4,4,5,3,1,4,4,3,2,3,3,3,5,1,2,1,4,1,1,4,4,4,1,2"
dtnsim.node[3].app.start = "18,20,7,5,13,5,19,7,14,11,20,3,20,13,4,2,18,17,16,6,9,17,14,2,3,11,13,18,17,19,16,5,15,1,7,2,7,5,16,11,8,20,16,5,1,15,17,2,6,8,3,20,8,18,8,19,13,6,2,7,11,5,20,4,20,4,16,1,9,10,1,12,18,2,20,5,18,4,9,15,19,17,14,13,17,17,16,19,5,19,14,20,18,14,3,5,7,5,7,18"
dtnsim.node[3].app.destinationEid = "2,2,2,2,2,2,2,2,2,2,2,2,2,2,2,2,2,2,2,4,4,4,4,4,4,4,4,4,4,4,4,4,4,4,4,4,4,4,4,4,4,4,4,4,4,4,4,4,4,4,4,4,4,4,4,4,4,4,4,4,4,4,4,4,4,4,4,4,4,4,4,4,4,4,4,4,4,4,4,4,4,4,4,4,4,4,4,4,4,4,4,4,4,4,4,4,4,4,4,4"
dtnsim.node[3].app.size = "500,100,50,500,100,200,100,200,50,500,100,100,500,200,500,200,500,50,500,50,50,100,500,100,100,100,500,50,100,200,500,200,200,50,200,50,500,50,200,500,100,100,200,200,100,50,100,200,200,500,200,200,500,200,200,500,50,100,50,100,500,500,100,100,100,100,200,100,500,500,200,500,50,200,500,50,50,200,100,100,200,100,500,500,500,500,200,100,200,50,500,100,100,200,500,500,200,50,500,50"
# Node 4 random conversational traffic
dtnsim.node[4].app.enable = true
dtnsim.node[4].app.bundlesNumber = "4,5,5,4,4,4,3,1,1,5,1,5,2,3,2,1,3,5,4,4,4,3,5,5,3,1,4,4,1,3,3,2,2,5,5,2,5,5,1,1,3,5,4,5,2,1,3,3,3,1,3,1,4,5,5,5,5,2,3,4,2,1,4,4,1,2,3,1,5,3,2,5,5,1,3,5,1,5,3,2,1,2,5,5,4,3,1,1,4,1,1,5,5,4,2,3,2,4,3,2"
dtnsim.node[4].app.start = "15,16,18,17,12,10,19,20,18,17,19,7,8,12,6,20,20,18,9,17,10,12,19,11,20,7,10,20,4,15,17,18,6,20,20,20,17,20,11,20,15,20,20,17,4,8,13,20,18,8,10,14,3,4,16,12,14,4,14,19,10,15,1,19,7,14,7,18,6,8,14,9,10,19,20,14,3,5,2,8,11,15,7,16,5,17,11,19,16,13,18,11,13,2,4,10,15,1,15,1"
dtnsim.node[4].app.destinationEid = "3,3,3,3,3,3,3,3,3,3,3,3,3,3,3,3,3,3,3,3,3,3,3,3,3,3,3,3,3,3,3,3,3,3,3,3,3,3,3,3,3,3,3,3,3,3,3,3,5,5,5,5,5,5,5,5,5,5,5,5,5,5,5,5,5,5,5,5,5,5,5,5,5,5,5,5,5,5,5,5,5,5,5,5,5,5,5,5,5,5,5,5,5,5,5,5,5,5,5,5"
dtnsim.node[4].app.size = "200,50,500,50,500,100,500,200,50,500,500,50,200,500,200,200,50,100,50,500,50,500,100,500,100,200,500,50,50,100,100,100,50,500,500,100,50,50,50,200,50,200,500,50,50,200,100,500,200,50,200,100,500,100,500,50,200,50,50,200,500,500,50,50,200,500,50,200,500,500,500,100,100,50,100,100,200,500,50,200,200,50,200,200,50,100,100,500,200,500,200,100,50,50,500,200,200,200,500,500"
# Node 5 random conversational traffic
dtnsim.node[5].app.enable = true
dtnsim.node[5].app.bundlesNumber = "2,4,1,4,2,3,3,5,3,5,4,3,5,3,4,1,4,1,5,1,1,3,1,5,1,5,2,4,1,1,5,1,3,2,4,2,3,4,5,2,5,4,3,4,3,1,2,1,4,2,1,3,4,4,2,5,4,3,2,3,4,2,2,5,1,2,2,2,2,3,4,3,2,5,1,5,4,2,2,3,2,1,4,2,3,4,5,2,3,1,2,1,1,4,1,4,3,5,5,5"
dtnsim.node[5].app.start = "20,16,12,18,7,18,11,17,20,13,17,19,18,17,20,18,9,9,11,18,17,20,18,19,17,15,8,18,16,16,11,16,3,3,2,12,18,11,18,14,15,5,4,9,18,15,3,13,15,18,3,2,14,19,16,16,3,6,8,6,12,9,17,2,3,17,8,3,9,4,19,8,12,5,2,15,15,20,17,10,17,18,12,9,6,19,3,9,13,13,17,4,5,19,12,18,12,16,5,16"
dtnsim.node[5].app.destinationEid = "4,4,4,4,4,4,4,4,4,4,4,4,4,4,4,4,4,4,4,4,4,4,4,4,4,4,4,4,4,4,4,6,6,6,6,6,6,6,6,6,6,6,6,6,6,6,6,6,6,6,6,6,6,6,6,6,6,6,6,6,6,6,6,6,6,6,6,6,6,6,6,6,6,6,6,6,6,6,6,6,6,6,6,6,6,6,6,6,6,6,6,6,6,6,6,6,6,6,6,6"
dtnsim.node[5].app.size = "50,100,100,500,100,50,200,50,200,50,100,500,500,100,50,100,200,500,200,100,100,100,100,200,200,500,50,200,50,50,500,50,50,200,200,200,200,200,500,100,500,500,100,200,200,200,100,50,500,50,100,100,200,500,100,100,200,200,100,50,200,500,500,500,50,500,500,100,500,500,100,50,50,100,500,200,500,200,200,100,100,100,200,100,50,200,200,50,200,100,100,200,50,100,500,200,100,100,100,500"
# Node 6 random conversational traffic
dtnsim.node[6].app.enable = true
dtnsim.node[6].app.bundlesNumber = "2,1,2,2,4,3,1,2,1,5,4,4,4,1,1,2,2,3,2,1,5,2,2,4,4,1,3,3,4,4,3,5,4,1,1,2,4,2,2,4,2,1,3,2,5,3,5,5,5,2,4,4,3,5,2,4,5,2,3,4,4,2,3,1,4,4,4,2,5,1,2,4,3,3,3,4,4,3,5,5,3,5,4,3,2,1,5,5,3,4,3,4,1,1,2,3,4,1,2,5"
dtnsim.node[6].app.start = "17,4,10,20,20,17,11,17,20,19,11,19,10,20,18,6,12,9,10,20,18,20,16,20,13,18,18,15,20,17,14,20,12,18,19,20,8,20,19,13,20,5,10,2,19,11,14,10,9,13,18,16,1,19,10,5,12,19,19,18,6,8,1,16,18,4,15,12,4,4,11,3,6,18,1,20,12,15,1,15,13,15,3,12,8,9,1,8,4,20,8,13,18,19,9,12,19,15,12,13"
dtnsim.node[6].app.destinationEid = "5,5,5,5,5,5,5,5,5,5,5,5,5,5,5,5,5,5,5,5,5,5,5,5,5,5,5,5,5,5,5,5,5,5,5,5,5,5,5,5,5,7,7,7,7,7,7,7,7,7,7,7,7,7,7,7,7,7,7,7,7,7,7,7,7,7,7,7,7,7,7,7,7,7,7,7,7,7,7,7,7,7,7,7,7,7,7,7,7,7,7,7,7,7,7,7,7,7,7,7"
dtnsim.node[6].app.size = "500,500,100,50,500,200,50,200,500,100,500,500,100,500,500,200,500,50,500,200,50,500,500,500,200,500,200,200,50,100,50,200,200,500,100,100,100,200,500,500,50,50,50,500,50,500,500,500,100,100,500,100,100,50,100,50,200,100,50,100,200,500,50,100,200,500,200,200,100,500,500,200,50,100,50,50,100,50,50,200,100,500,500,500,500,100,500,500,50,500,100,100,500,100,200,50,50,200,200,200"
# Node 7 random conversational traffic
dtnsim.node[7].app.enable = true
dtnsim.node[7].app.bundlesNumber = "3,2,4,2,2,4,4,3,2,1,2,2,3,3,1,1,3,5,4,4,3,3,5,4,5,1,5,4,1,4,1,1,4,5,5,3,5,4,1,3,5,5,5,4,5,1,1,4,5,1,1,4,2,5,1,2,4,3,4,1,3,2,3,1,5,3,3,5,1,3,5,4,3,2,2,3,5,5,3,1,4,2,4,3,4,3,1,5,5,2,2,3,2,1,3,3,4,3,1,2"
dtnsim.node[7].app.start = "15,16,10,20,16,15,20,3,14,17,8,6,19,15,5,12,7,8,19,4,20,15,20,19,20,20,12,13,11,10,13,20,9,20,15,18,20,20,9,18,2,16,12,2,8,18,19,9,12,15,14,14,11,1,18,20,11,5,9,2,4,9,13,1,12,3,10,2,19,6,6,18,10,1,19,5,9,13,9,11,16,13,2,17,14,7,16,20,7,1,5,10,2,8,20,10,10,16,14,3"
dtnsim.node[7].app.destinationEid = "6,6,6,6,6,6,6,6,6,6,6,6,6,6,6,6,6,6,6,6,6,6,6,6,6,6,6,6,6,6,6,6,6,6,6,6,6,6,8,8,8,8,8,8,8,8,8,8,8,8,8,8,8,8,8,8,8,8,8,8,8,8,8,8,8,8,8,8,8,8,8,8,8,8,8,8,8,8,8,8,8,8,8,8,8,8,8,8,8,8,8,8,8,8,8,8,8,8,8,8"
dtnsim.node[7].app.size = "500,100,500,200,500,500,200,100,200,200,50,500,50,200,100,500,100,50,200,50,200,100,50,50,500,100,100,500,100,200,100,100,50,100,100,500,500,100,500,200,200,200,100,50,100,200,500,100,500,500,100,500,50,500,500,100,500,50,200,500,500,100,100,50,100,50,200,500,200,100,200,500,200,50,500,50,50,200,100,500,200,50,50,500,200,100,200,500,200,50,500,50,500,500,200,500,200,50,500,200"
# Node 8 random conversational traffic
dtnsim.node[8].app.enable = true
dtnsim.node[8].app.bundlesNumber = "3,1,4,3,3,5,3,4,2,4,1,2,3,1,4,5,5,1,5,5,5,2,1,4,1,5,4,5,1,5,2,4,3,2,1,5,5,2,3,1,2,2,4,3,5,4,2,5,3,3,3,4,2,2,3,1,1,3,1,5,3,2,2,2,4,3,3,5,1,2,2,2,1,2,2,1,4,3,2,3,3,2,2,2,4,5,1,1,3,1,3,4,2,4,3,1,1,5,2,2"
dtnsim.node[8].app.start = "9,17,18,10,19,20,18,13,17,15,16,13,2,20,20,16,6,12,15,7,20,11,4,8,18,20,8,20,18,17,20,8,9,5,17,20,18,11,19,13,1,11,13,7,14,11,11,18,4,17,1,19,6,3,10,19,13,1,18,3,11,15,8,9,9,1,13,4,4,3,2,11,7,17,16,17,10,19,4,5,3,11,4,15,12,3,19,12,9,13,7,3,5,8,6,18,18,15,11,2"
dtnsim.node[8].app.destinationEid = "7,7,7,7,7,7,7,7,7,7,7,7,7,7,7,7,7,7,7,7,7,7,7,7,7,7,7,7,7,7,7,7,7,7,7,7,7,7,7,9,9,9,9,9,9,9,9,9,9,9,9,9,9,9,9,9,9,9,9,9,9,9,9,9,9,9,9,9,9,9,9,9,9,9,9,9,9,9,9,9,9,9,9,9,9,9,9,9,9,9,9,9,9,9,9,9,9,9,9,9"
dtnsim.node[8].app.size = "500,500,200,500,200,100,100,500,500,50,200,200,50,500,500,500,100,500,100,50,200,500,200,100,100,500,200,500,200,500,100,200,100,500,50,50,100,100,100,100,200,50,50,50,500,100,50,50,100,50,50,200,100,50,100,50,500,200,500,50,200,200,100,200,200,200,100,500,200,100,200,100,200,200,500,100,500,500,200,100,200,200,200,50,50,100,50,200,500,200,200,50,100,500,100,500,200,50,100,50"
# Node 9 random conversational traffic
dtnsim.node[9].app.enable = true
dtnsim.node[9].app.bundlesNumber = "2,3,4,3,2,3,3,2,4,1,1,4,4,2,5,2,5,1,1,2,2,1,4,1,1,3,3,3,1,2,4,1,3,2,3,1,5,1,2,4,1,4,5,3,1,5,4,1,4,4,5,5,2,5,4,5,4,5,5,3,2,5,4,5,2,2,3,5,5,5,5,2,5,2,5,5,3,2,1,3,2,5,3,3,3,1,1,4,3,1,3,3,1,5,4,4,1,1,5,3"
dtnsim.node[9].app.start = "8,14,17,12,17,20,7,11,20,7,20,19,5,19,19,12,11,14,9,18,20,19,20,4,18,8,13,17,19,14,9,9,11,20,16,12,17,15,19,19,7,3,15,11,18,6,8,1,20,12,8,18,13,5,2,18,7,3,16,4,1,7,12,19,11,3,9,13,10,7,5,8,15,17,18,16,13,13,4,10,20,16,2,10,8,12,9,19,12,7,4,6,18,12,5,19,4,3,11,4"
dtnsim.node[9].app.destinationEid = "8,8,8,8,8,8,8,8,8,8,8,8,8,8,8,8,8,8,8,8,8,8,8,8,8,8,8,8,8,8,8,8,8,8,8,8,10,10,10,10,10,10,10,10,10,10,10,10,10,10,10,10,10,10,10,10,10,10,10,10,10,10,10,10,10,10,10,10,10,10,10,10,10,10,10,10,10,10,10,10,10,10,10,10,10,10,10,10,10,10,10,10,10,10,10,10,10,10,10,10"
dtnsim.node[9].app.size = "50,100,500,500,50,500,200,200,500,50,500,50,500,50,200,100,50,500,500,50,100,100,200,200,200,200,100,200,200,50,200,100,50,500,50,500,50,100,500,50,100,500,50,100,500,500,500,500,500,200,100,500,200,500,200,200,500,200,100,100,100,50,500,100,500,200,200,500,50,100,200,100,500,50,500,50,50,100,200,500,50,50,200,50,100,50,100,200,100,50,500,200,500,500,500,200,500,200,50,500"
# Node 10 random conversational traffic
dtnsim.node[10].app.enable = true
dtnsim.node[10].app.bundlesNumber = "3,1,5,2,3,5,1,3,1,4,4,3,4,4,3,3,3,3,1,4,4,1,2,4,1,4,4,5,2,5,3,3,5,5,4,2,5,4,3,5,5,3,3,3,5,5,2,5,3,4,1,2,1,1,4,1,2,4,4,3,5,1,3,3,1,2,1,5,1,2,1,1,3,4,1,2,3,2,2,5,5,5,1,3,5,3,4,2,4,3,2,2,5,2,4,3,1,3,4,2"
dtnsim.node[10].app.start = "19,20,9,17,7,10,11,20,14,19,14,19,16,7,18,4,13,17,4,17,18,13,9,12,19,19,20,18,20,18,10,18,18,20,15,10,9,8,19,16,14,12,16,5,3,20,18,2,6,18,15,10,19,10,9,18,5,6,15,11,2,6,19,18,18,3,5,6,4,13,1,6,11,3,5,20,3,9,16,15,6,17,10,5,16,11,15,18,11,18,15,10,8,1,8,9,11,17,5,19"
dtnsim.node[10].app.destinationEid = "9,9,9,9,9,9,9,9,9,9,9,9,9,9,9,9,9,9,9,9,9,9,9,9,9,9,9,9,9,9,9,9,9,9,9,9,9,9,9,9,9,9,9,9,11,11,11,11,11,11,11,11,11,11,11,11,11,11,11,11,11,11,11,11,11,11,11,11,11,11,11,11,11,11,11,11,11,11,11,11,11,11,11,11,11,11,11,11,11,11,11,11,11,11,11,11,11,11,11,11"
dtnsim.node[10].app.size = "100,50,200,50,500,100,100,50,100,200,100,500,100,100,100,100,50,500,100,100,200,100,500,200,50,200,100,100,100,200,500,500,200,500,50,50,100,200,50,100,50,50,50,500,500,500,50,500,50,50,50,500,500,100,200,50,100,50,50,200,200,200,200,200,100,100,200,500,50,200,100,50,100,100,500,100,500,50,200,100,100,100,50,200,50,500,500,500,100,100,200,50,200,500,50,200,50,100,500,100"
# Node 11 random conversational traffic
dtnsim.node[11].app.enable = true
dtnsim.node[11].app.bundlesNumber = "4,3,1,1,3,3,2,4,3,1,4,1,5,2,4,5,2,3,2,1,2,2,3,3,4,2,5,1,3,4,4,3,5,5,4,2,1,3,4,3,1,3,4,3,5,1,5,1,3,4,5,5,3,1,5,2,5,3,2,1,3,2,4,2,3,5,5,3,5,5,5,5,1,3,3,5,5,5,3,4,2,2,4,1,3,5,2,2,2,3,3,3,3,2,5,5,3,5,5,1"
dtnsim.node[11].app.start = "11,20,10,15,19,20,20,17,19,17,7,19,19,13,7,4,11,12,20,20,20,12,19,19,14,18,17,20,20,20,20,3,10,18,19,9,20,2,2,6,1,3,6,16,6,15,6,10,9,8,3,5,17,18,13,5,17,15,7,18,2,16,2,2,1,10,8,8,19,9,17,6,14,18,2,3,15,12,4,15,6,6,2,14,15,7,19,14,20,16,2,5,7,5,5,8,14,5,3,6"
dtnsim.node[11].app.destinationEid = "10,10,10,10,10,10,10,10,10,10,10,10,10,10,10,10,10,10,10,10,10,10,10,10,10,10,10,10,10,10,10,10,10,10,10,10,10,12,12,12,12,12,12,12,12,12,12,12,12,12,12,12,12,12,12,12,12,12,12,12,12,12,12,12,12,12,12,12,12,12,12,12,12,12,12,12,12,12,12,12,12,12,12,12,12,12,12,12,12,12,12,12,12,12,12,12,12,12,12,12"
dtnsim.node[11].app.size = "100,100,100,100,100,500,200,500,100,100,500,100,100,100,50,200,200,200,200,500,500,100,50,100,500,500,50,500,500,200,500,500,100,500,50,500,100,200,100,50,50,200,200,100,50,200,100,200,500,50,500,200,200,200,50,200,200,100,50,50,100,500,100,500,100,500,100,500,500,100,200,100,200,500,200,200,50,50,100,100,50,200,100,500,200,200,200,500,500,200,50,500,50,50,500,500,50,200,500,500"
# Node 12 random conversational traffic
dtnsim.node[12].app.enable = true
dtnsim.node[12].app.bundlesNumber = "3,2,3,4,4,4,2,1,2,5,3,3,4,1,2,5,4,2,1,5,3,1,4,4,1,4,1,5,4,3,5,4,5,5,1,2,1,4,2,2,3,1,1,3,4,1,2,1,2,1,5,4,3,1,4,5,1,3,2,3,2,2,4,2,5,4,2,2,5,4,3,4,2,3,3,2,4,3,1,5,2,5,2,5,5,2,2,2,5,5,4,1,5,1,4,5,2,4,2,5"
dtnsim.node[12].app.start = "11,14,8,16,20,10,20,15,7,8,19,19,20,12,16,19,17,7,15,10,20,20,13,19,4,8,19,11,12,7,18,4,9,8,12,14,19,10,8,6,1,12,19,14,2,18,10,6,16,6,4,14,13,16,4,7,12,5,8,2,6,18,6,8,17,16,7,13,8,18,15,13,18,6,1,6,18,7,13,2,15,9,10,8,2,4,20,19,10,18,6,13,5,7,8,5,18,13,8,4"
dtnsim.node[12].app.destinationEid = "11,11,11,11,11,11,11,11,11,11,11,11,11,11,11,11,11,11,11,11,11,11,11,11,11,11,11,11,11,11,11,11,11,11,11,11,11,11,11,13,13,13,13,13,13,13,13,13,13,13,13,13,13,13,13,13,13,13,13,13,13,13,13,13,13,13,13,13,13,13,13,13,13,13,13,13,13,13,13,13,13,13,13,13,13,13,13,13,13,13,13,13,13,13,13,13,13,13,13,13"
dtnsim.node[12].app.size = "100,200,50,500,50,100,200,100,200,100,50,500,500,200,50,200,50,100,50,200,500,500,100,500,50,100,500,200,50,500,200,50,200,500,100,500,100,200,50,50,200,200,200,100,500,500,500,200,200,200,50,500,200,50,500,50,200,200,100,50,500,200,50,100,500,100,200,50,500,200,50,50,100,200,50,50,200,500,100,200,200,500,100,500,50,200,200,50,100,50,200,50,50,500,100,100,50,50,100,50"
# Node 13 random conversational traffic
dtnsim.node[13].app.enable = true
dtnsim.node[13].app.bundlesNumber = "2,3,2,3,4,1,3,1,5,5,2,4,2,2,4,1,4,3,5,5,3,1,4,1,2,1,5,1,4,3,1,1,1,1,5,4,3,1,2,5,3,4,4,5,3,5,4,5,1,1,4,5,3,4,4,1,1,1,4,1,4,3,1,5,4,2,2,3,5,5,5,3,4,4,2,1,5,2,3,4,3,1,5,3,2,4,5,3,3,5,3,1,5,5,5,4,5,3,5,5"
dtnsim.node[13].app.start = "16,20,15,15,14,17,7,9,13,18,9,17,12,19,19,11,16,7,14,7,20,20,20,13,13,13,19,17,8,6,10,19,1,13,1,1,19,19,6,12,4,2,18,19,18,2,18,4,20,14,11,3,18,9,19,16,19,20,16,1,5,19,8,3,16,6,17,5,12,18,5,2,3,5,16,12,16,1,1,12,2,7,10,8,13,11,19,18,20,16,4,4,3,13,7,5,15,14,8,11"
dtnsim.node[13].app.destinationEid = "12,12,12,12,12,12,12,12,12,12,12,12,12,12,12,12,12,12,12,12,12,12,12,12,12,12,12,12,12,14,14,14,14,14,14,14,14,14,14,14,14,14,14,14,14,14,14,14,14,14,14,14,14,14,14,14,14,14,14,14,14,14,14,14,14,14,14,14,14,14,14,14,14,14,14,14,14,14,14,14,14,14,14,14,14,14,14,14,14,14,14,14,14,14,14,14,14,14,14,14"
dtnsim.node[13].app.size = "500,200,50,500,100,100,100,500,500,100,500,50,50,500,50,500,500,100,100,500,50,100,200,200,50,50,50,50,200,200,50,50,50,200,100,200,200,500,50,50,200,200,100,50,100,200,200,500,100,50,100,50,50,200,200,100,50,100,50,200,200,200,200,50,100,50,200,50,50,500,200,200,50,500,200,50,100,500,100,100,50,100,500,200,500,100,200,100,500,50,200,500,200,500,200,100,50,500,50,200"
# Node 14 random conversational traffic
dtnsim.node[14].app.enable = true
dtnsim.node[14].app.bundlesNumber = "5,3,3,2,1,3,3,1,5,5,1,1,2,5,1,3,2,5,2,2,5,3,5,4,2,3,1,4,5,4,5,5,4,5,3,1,5,4,3,3,1,3,1,1,1,4,2,4,2,5,3,2,2,3,4,2,4,4,5,4,2,3,3,1,3,3,5,5,1,5,5,5,1,5,5,1,3,3,2,3,1,2,4,4,2,4,2,4,4,5,1,3,4,4,2,1,3,5,1,1"
dtnsim.node[14].app.start = "12,9,3,7,9,20,20,11,20,18,10,14,20,20,9,13,10,20,17,7,16,19,20,8,9,17,14,18,15,6,9,20,18,4,15,20,16,15,1,17,18,3,1,5,3,16,15,10,19,7,14,2,20,14,4,18,9,15,8,2,20,2,16,3,16,1,14,8,19,1,17,5,5,16,10,3,6,20,19,16,1,2,20,5,5,15,3,7,2,14,6,15,3,20,3,3,15,13,7,4"
dtnsim.node[14].app.destinationEid = "13,13,13,13,13,13,13,13,13,13,13,13,13,13,13,13,13,13,13,13,13,13,13,13,13,13,13,15,15,15,15,15,15,15,15,15,15,15,15,15,15,15,15,15,15,15,15,15,15,15,15,15,15,15,15,15,15,15,15,15,15,15,15,15,15,15,15,15,15,15,15,15,15,15,15,15,15,15,15,15,15,15,15,15,15,15,15,15,15,15,15,15,15,15,15,15,15,15,15,15"
dtnsim.node[14].app.size = "500,500,100,100,50,100,200,50,100,100,50,200,200,200,200,500,200,500,100,100,100,200,50,500,50,100,50,50,200,500,100,100,200,200,50,100,500,50,200,100,500,50,100,500,50,50,50,100,50,200,100,100,200,50,50,50,500,200,100,100,50,100,50,500,50,100,100,200,100,100,200,200,50,200,100,50,50,100,200,100,50,200,100,100,50,100,200,500,200,100,500,500,200,50,100,500,100,50,50,100"
# Node 15 random conversational traffic
dtnsim.node[15].app.enable = true
dtnsim.node[15].app.bundlesNumber = "3,2,3,4,4,3,5,1,3,2,2,5,5,5,4,4,4,4,4,1,1,4,3,2,1,5,5,2,4,2,2,4,5,4,1,5,5,4,4,5,2,2,5,1,4,4,1,4,2,3,5,2,2,3,5,4,2,1,2,3,5,1,5,3,4,4,1,2,1,3,5,3,4,5,5,1,5,5,1,2,2,3,4,5,3,3,4,3,2,3,2,5,5,5,2,3,3,5,3,5"
dtnsim.node[15].app.start = "16,20,19,13,18,5,4,12,20,20,8,19,11,17,20,12,19,9,20,10,20,10,8,7,18,8,9,16,11,20,19,9,8,18,5,7,20,16,12,4,20,16,17,12,10,19,16,2,17,3,10,3,4,7,18,13,20,12,18,8,20,19,10,3,13,16,9,12,5,20,4,10,3,9,5,10,4,7,2,11,8,14,6,11,2,1,16,7,19,3,3,4,15,2,7,13,14,13,8,3"
dtnsim.node[15].app.destinationEid = "14,14,14,14,14,14,14,14,14,14,14,14,14,14,14,14,14,14,14,14,14,14,14,14,14,14,14,14,14,14,14,14,14,14,14,14,14,14,14,14,14,14,16,16,16,16,16,16,16,16,16,16,16,16,16,16,16,16,16,16,16,16,16,16,16,16,16,16,16,16,16,16,16,16,16,16,16,16,16,16,16,16,16,16,16,16,16,16,16,16,16,16,16,16,16,16,16,16,16,16"
dtnsim.node[15].app.size = "200,100,50,100,500,500,200,200,100,100,50,500,50,50,200,100,100,200,500,500,50,50,100,500,500,500,50,500,50,500,200,100,50,100,100,50,100,500,500,500,500,50,50,100,50,100,100,100,100,100,200,500,200,100,200,200,200,500,200,100,50,50,200,100,100,500,50,200,500,200,200,500,200,200,100,50,200,500,100,500,200,200,200,200,500,100,50,50,50,50,200,200,200,200,500,200,500,100,100,100"
# Node 16 random conversational traffic
dtnsim.node[16].app.enable = true
dtnsim.node[16].app.bundlesNumber = "2,5,2,1,5,3,3,1,5,2,5,4,1,2,3,4,1,3,3,5,4,2,4,1,2,2,4,2,1,4,5,2,2,3,4,2,5,1,5,4,2,5,1,1,1,4,3,4,5,5,4,4,3,4,1,4,4,5,4,3,2,3,4,3,5,3,1,2,2,4,2,5,1,3,1,3,1,5,1,5,4,3,2,2,5,2,2,3,1,4,4,3,1,4,5,2,2,1,5,4"
dtnsim.node[16].app.start = "18,17,6,9,7,12,15,20,17,14,14,4,20,18,16,20,19,5,14,11,15,13,14,15,8,3,17,15,11,5,17,17,16,20,11,5,2,20,17,11,16,7,18,2,18,19,7,18,5,8,20,10,7,9,19,10,8,18,8,18,14,12,18,20,3,11,19,6,14,12,2,10,6,19,19,9,7,19,19,1,5,16,10,17,20,6,15,16,19,13,12,13,2,20,18,12,17,2,18,14"
dtnsim.node[16].app.destinationEid = "15,15,15,15,15,15,15,15,15,15,15,15,15,15,15,15,15,15,15,15,15,15,15,15,15,15,15,15,15,15,15,15,15,15,15,15,17,17,17,17,17,17,17,17,17,17,17,17,17,17,17,17,17,17,17,17,17,17,17,17,17,17,17,17,17,17,17,17,17,17,17,17,17,17,17,17,17,17,17,17,17,17,17,17,17,17,17,17,17,17,17,17,17,17,17,17,17,17,17,17"
dtnsim.node[16].app.size = "50,500,50,500,50,200,100,100,50,50,500,50,200,500,50,500,50,500,100,200,50,50,200,100,200,500,100,500,100,100,200,100,50,500,500,500,500,500,100,500,100,50,200,500,100,50,500,50,50,100,200,100,100,50,100,50,500,100,100,200,100,200,500,500,50,500,50,100,200,200,50,200,100,500,200,200,100,100,50,200,50,200,50,500,50,50,100,50,100,200,100,500,500,50,200,50,100,100,500,500"
# Node 17 random conversational traffic
dtnsim.node[17].app.enable = true
dtnsim.node[17].app.bundlesNumber = "4,1,3,4,1,5,5,4,2,3,1,3,4,3,5,3,3,4,5,1,5,4,3,2,2,5,1,1,4,1,4,3,4,3,5,5,1,5,1,5,5,4,2,2,1,1,1,1,1,5,5,1,1,5,4,2,1,3,4,5,3,3,4,5,2,2,4,5,2,4,1,4,5,4,1,4,3,1,3,5,4,5,1,4,2,3,5,2,5,2,4,5,4,1,1,5,1,4,2,4"
dtnsim.node[17].app.start = "20,18,19,19,11,20,12,19,11,20,16,15,13,20,12,19,12,20,17,20,20,8,15,20,13,20,20,3,6,20,20,15,16,18,16,6,12,18,19,5,19,6,11,14,8,20,13,2,17,10,16,10,12,13,16,15,17,16,6,12,10,3,4,2,14,4,1,12,19,9,18,15,11,17,4,12,17,6,7,13,11,2,18,20,10,17,9,12,19,4,18,12,18,20,8,16,7,13,12,12"
dtnsim.node[17].app.destinationEid = "16,16,16,16,16,16,16,16,16,16,16,16,16,16,16,16,16,16,16,16,16,16,16,16,16,16,16,16,16,16,16,16,16,16,16,16,16,18,18,18,18,18,18,18,18,18,18,18,18,18,18,18,18,18,18,18,18,18,18,18,18,18,18,18,18,18,18,18,18,18,18,18,18,18,18,18,18,18,18,18,18,18,18,18,18,18,18,18,18,18,18,18,18,18,18,18,18,18,18,18"
dtnsim.node[17].app.size = "50,200,200,500,500,100,500,500,50,100,50,100,50,500,100,500,500,500,500,500,200,500,200,100,100,200,500,100,200,100,50,100,100,50,50,200,500,200,500,200,500,100,500,500,50,200,50,200,500,200,50,500,100,100,100,100,50,50,500,100,100,100,200,50,500,50,100,200,500,100,500,200,200,50,50,200,100,50,50,200,500,200,200,500,500,50,50,50,50,500,50,500,200,100,50,500,100,100,50,100"
# Node 18 random conversational traffic
dtnsim.node[18].app.enable = true
dtnsim.node[18].app.bundlesNumber = "2,4,1,5,1,5,4,4,4,3,4,1,4,2,4,2,3,1,5,4,3,1,5,2,1,4,3,3,5,5,4,3,4,2,1,2,3,4,4,4,5,4,2,1,5,5,5,4,1,2,2,5,5,1,5,5,3,4,5,5,4,1,1,2,2,2,1,2,2,2,5,2,3,3,1,5,1,2,3,2,3,5,1,3,3,4,3,3,3,5,5,3,1,1,2,5,5,4,2,3"
dtnsim.node[18].app.start = "20,10,16,17,15,14,8,18,20,20,16,19,18,9,17,12,8,7,20,11,13,20,11,20,18,19,18,18,16,8,6,19,20,18,20,11,20,20,19,20,20,9,20,14,13,2,16,8,10,1,10,14,15,11,15,16,16,17,1,12,15,5,10,19,16,8,5,20,7,18,14,11,18,17,14,1,12,15,12,14,18,3,12,18,5,12,3,13,8,14,15,6,14,1,8,12,13,1,18,10"
dtnsim.node[18].app.destinationEid = "17,17,17,17,17,17,17,17,17,17,17,17,17,17,17,17,17,17,17,17,17,17,17,17,17,17,17,17,17,17,17,17,17,17,17,17,17,17,17,17,17,17,17,17,19,19,19,19,19,19,19,19,19,19,19,19,19,19,19,19,19,19,19,19,19,19,19,19,19,19,19,19,19,19,19,19,19,19,19,19,19,19,19,19,19,19,19,19,19,19,19,19,19,19,19,19,19,19,19,19"
dtnsim.node[18].app.size = "50,500,200,50,500,50,100,50,100,100,500,200,50,500,100,50,50,200,50,500,500,500,500,100,200,100,500,100,500,50,100,100,200,500,50,100,100,200,100,100,100,500,200,100,200,500,50,50,50,200,200,200,100,50,200,100,200,100,500,50,500,50,100,200,50,500,100,100,50,500,500,50,50,200,200,200,200,100,50,100,200,500,500,500,100,50,50,200,100,200,50,500,500,500,200,50,500,100,100,200"
# Node 19 random conversational traffic
dtnsim.node[19].app.enable = true
dtnsim.node[19].app.bundlesNumber = "3,4,5,3,3,4,4,3,4,5,4,1,5,2,5,4,3,3,5,2,5,5,5,1,1,3,1,1,2,3,2,4,5,3,5,4,5,3,4,5,3,4,4,2,1,2,2,2,3,4,3,2,4,1,5,2,1,3,1,2,4,3,3,1,1,5,2,3,4,2,2,5,4,3,3,5,5,5,1,1,2,3,2,5,2,4,1,4,1,3,5,5,3,1,2,4,4,3,2,3"
dtnsim.node[19].app.start = "9,17,15,19,19,16,20,16,20,18,8,19,20,20,20,19,18,8,19,20,11,17,19,13,20,10,18,19,20,14,18,7,12,15,14,18,13,18,9,6,2,4,12,7,15,6,19,18,8,13,10,10,4,9,20,6,11,18,2,10,5,14,11,9,16,13,15,15,5,7,8,13,12,4,16,6,10,3,13,14,17,17,7,4,10,1,18,12,12,11,14,20,15,16,2,12,5,6,17,4"
dtnsim.node[19].app.destinationEid = "18,18,18,18,18,18,18,18,18,18,18,18,18,18,18,18,18,18,18,18,18,18,18,18,18,18,18,18,18,18,18,18,20,20,20,20,20,20,20,20,20,20,20,20,20,20,20,20,20,20,20,20,20,20,20,20,20,20,20,20,20,20,20,20,20,20,20,20,20,20,20,20,20,20,20,20,20,20,20,20,20,20,20,20,20,20,20,20,20,20,20,20,20,20,20,20,20,20,20,20"
dtnsim.node[19].app.size = "500,500,500,50,50,200,500,500,50,500,500,50,50,200,200,500,100,100,500,500,500,50,200,500,100,100,200,500,100,500,500,200,200,200,500,200,200,50,100,50,100,500,50,100,500,500,200,100,100,200,100,200,50,200,50,500,500,100,50,200,100,100,100,500,200,200,100,50,200,200,100,50,50,100,100,50,500,50,50,200,200,500,500,50,500,50,500,100,50,500,100,200,100,500,500,200,50,200,500,500"
# Node 20 random conversational traffic
dtnsim.node[20].app.enable = true
dtnsim.node[20].app.bundlesNumber = "4,4,1,1,4,3,5,2,4,3,2,5,3,5,4,2,4,5,5,2,4,4,1,2,4,2,5,1,1,4,3,3,1,2,2,2,5,3,2,4,2,1,4,2,2,4,4,1,4,2,4,4,5,1,1,2,2,3,2,3,4,1,3,2,1,5,2,4,5,5,1,5,2,2,1,3,3,5,3,1,2,5,2,4,5,4,2,2,1,5,3,3,1,4,5,5,2,3,4,1"
dtnsim.node[20].app.start = "14,18,15,19,17,20,13,11,5,13,20,19,19,11,16,14,20,16,13,9,13,18,19,19,8,20,13,6,19,8,15,20,20,15,9,16,2,18,18,19,3,11,18,8,1,2,18,14,3,3,5,2,14,8,20,10,16,17,2,11,16,12,9,18,5,9,19,3,19,1,17,8,8,9,4,6,12,18,6,8,11,19,12,2,17,18,7,6,17,2,4,13,11,17,18,6,2,3,10,9"
dtnsim.node[20].app.destinationEid = "19,19,19,19,19,19,19,19,19,19,19,19,19,19,19,19,19,19,19,19,19,19,19,19,19,19,19,19,19,19,19,19,19,19,19,19,19,19,19,19,19,19,19,21,21,21,21,21,21,21,21,21,21,21,21,21,21,21,21,21,21,21,21,21,21,21,21,21,21,21,21,21,21,21,21,21,21,21,21,21,21,21,21,21,21,21,21,21,21,21,21,21,21,21,21,21,21,21,21,21"
dtnsim.node[20].app.size = "500,200,50,50,50,50,50,50,100,500,100,100,200,50,50,200,200,200,500,50,200,200,100,500,200,100,50,100,100,100,100,200,50,50,200,500,200,500,500,500,100,50,50,500,200,100,50,200,500,500,500,100,50,50,100,200,200,200,200,500,200,500,50,500,100,200,100,100,100,500,50,200,50,100,500,50,50,50,500,50,50,50,500,100,100,50,100,50,50,100,500,200,50,200,100,500,200,50,50,200"
# Node 21 random conversational traffic
dtnsim.node[21].app.enable = true
dtnsim.node[21].app.bundlesNumber = "2,3,5,2,2,1,2,4,5,3,2,5,3,1,1,3,2,5,1,3,1,4,5,1,2,1,2,1,3,5,1,5,5,4,2,3,5,2,2,1,4,3,4,4,2,5,4,2,3,5,3,3,3,2,3,5,4,2,2,4,1,1,5,4,3,1,4,3,2,5,3,4,5,2,2,3,4,5,1,2,5,2,2,2,5,2,2,3,3,2,4,2,3,5,1,3,5,3,5,2"
dtnsim.node[21].app.start = "18,8,19,12,5,6,18,12,17,18,11,13,19,16,19,8,19,20,10,18,14,19,13,20,10,19,20,9,20,13,19,20,11,8,18,3,20,2,2,11,4,14,15,4,11,10,5,15,13,14,9,7,6,19,20,16,15,10,18,7,1,17,7,2,17,6,11,2,2,15,17,17,2,19,18,12,8,8,8,1,11,10,14,7,10,17,19,5,8,5,11,4,4,3,6,10,17,17,6,11"
dtnsim.node[21].app.destinationEid = "20,20,20,20,20,20,20,20,20,20,20,20,20,20,20,20,20,20,20,20,20,20,20,20,20,20,20,20,20,20,20,20,20,20,20,22,22,22,22,22,22,22,22,22,22,22,22,22,22,22,22,22,22,22,22,22,22,22,22,22,22,22,22,22,22,22,22,22,22,22,22,22,22,22,22,22,22,22,22,22,22,22,22,22,22,22,22,22,22,22,22,22,22,22,22,22,22,22,22,22"
dtnsim.node[21].app.size = "500,100,50,50,500,100,50,500,50,50,500,100,500,100,50,100,50,50,100,50,500,50,500,50,50,200,100,50,200,50,200,200,500,200,200,200,500,500,100,100,500,100,500,50,50,200,100,200,100,100,200,200,100,100,200,100,200,200,200,50,200,100,100,200,50,50,200,200,500,500,100,500,100,100,500,100,50,50,50,200,100,100,500,500,100,50,500,50,500,50,100,100,50,100,200,200,500,500,100,100"
# Node 22 random conversational traffic
dtnsim.node[22].app.enable = true
dtnsim.node[22].app.bundlesNumber = "4,5,3,4,4,2,1,5,4,1,1,2,4,2,1,2,1,3,2,4,4,3,1,1,3,1,2,1,5,5,5,2,2,4,4,5,1,4,3,3,3,4,2,1,1,5,4,4,4,3,1,3,3,5,2,3,5,3,5,5,4,4,3,5,4,2,4,2,5,4,4,1,3,4,5,2,1,5,2,2,2,4,5,2,3,3,3,2,2,4,1,3,2,3,2,5,3,1,1,1"
dtnsim.node[22].app.start = "4,15,11,20,16,19,19,15,15,14,20,20,18,17,19,9,2,20,9,18,7,20,20,11,15,12,19,18,16,20,15,9,6,8,13,19,18,9,16,10,8,8,9,17,18,15,2,6,15,19,10,11,5,3,20,14,10,18,4,16,20,12,15,3,4,18,4,10,5,10,9,13,9,2,6,11,9,1,2,17,17,16,16,5,14,11,5,11,19,19,4,11,16,16,7,11,10,2,9,17"
dtnsim.node[22].app.destinationEid = "21,21,21,21,21,21,21,21,21,21,21,21,21,21,21,21,21,21,21,21,21,21,21,21,21,21,21,21,21,21,21,21,21,21,21,21,21,21,21,23,23,23,23,23,23,23,23,23,23,23,23,23,23,23,23,23,23,23,23,23,23,23,23,23,23,23,23,23,23,23,23,23,23,23,23,23,23,23,23,23,23,23,23,23,23,23,23,23,23,23,23,23,23,23,23,23,23,23,23,23"
dtnsim.node[22].app.size = "50,200,100,500,200,100,100,100,200,200,100,100,500,100,200,50,100,500,50,500,200,100,500,100,500,50,200,100,100,100,50,100,100,50,100,500,100,100,500,50,100,100,500,200,200,100,50,500,500,100,200,50,200,500,200,200,100,50,50,200,50,50,200,500,100,100,100,200,100,100,50,500,500,50,100,50,100,200,500,100,500,200,50,500,50,50,50,500,100,50,50,100,200,100,500,50,100,500,200,200"
# Node 23 random conversational traffic
dtnsim.node[23].app.enable = true
dtnsim.node[23].app.bundlesNumber = "5,4,5,4,4,3,4,4,1,3,2,2,4,5,2,4,5,5,2,5,5,3,5,2,5,2,3,5,3,4,3,3,2,4,2,5,2,3,4,4,1,4,2,1,1,3,3,3,1,5,1,1,5,4,3,3,3,4,3,4,3,3,5,3,3,4,5,1,2,3,4,5,2,3,1,2,2,5,3,2,3,1,4,3,4,3,5,3,5,2,5,4,3,2,1,5,5,2,1,4"