[General]
network = src.dtnsim										
repeat = 1
allow-object-stealing-on-deletion = true

# Simulation end time
sim-time-limit = 84600s

# Nodes quantity (identifiers (EiDs) matches their index, EiD=0 is ignored)			
dtnsim.nodesNumber = 120
dtnsim.node[*].icon = "satellite"

# Nodes's failure rates
dtnsim.node[*].fault.enable = true
dtnsim.node[*].fault.meanTTF = 90s
dtnsim.node[*].fault.meanTTR = 10s

# Mobility
dtnsim.node[*].hasMobility = true
dtnsim.node[*].norad.satIndex = parentIndex()
dtnsim.node[*].norad.satName = "sat"
**.updateInterval = 20s
**.numOfSats = 120
**.satPerPlane = 10
**.altitude = 540
**.planes = 12
**.phaseOffset = 7

dtnsim.node[*].dtn.routing = "antop"
dtnsim.node[*].dtn.printRoutingDebug = true

# --- Random Traffic Configuration ---
# Node 1 random traffic
dtnsim.node[1].app.enable = true
dtnsim.node[1].app.bundlesNumber = "26,37,33,47,4,13,23,33,21,18,13,18,12,30,46,10,15,36,15,49,32,19,7,21,2,25,15,11,39,18,50,4,48,43,6,28,47,43,27,13,16,45,23,3,12,13,6,29,10,20,46,11,28,36,9,28,7,40,44,14,3,20,41,26,7,12,33,43,21,8,41,44,34,44,42,30,26,50,40,49,8,34,12,23,34,44,3,10,10,22,47,33,36,3,19,21,26,9,28,35"
dtnsim.node[1].app.start = "41,49,70,54,22,70,9,75,90,77,69,20,11,83,89,47,45,14,37,65,53,20,65,73,9,77,50,97,91,27,99,5,62,48,93,73,82,83,97,28,74,14,45,15,30,42,91,1,40,19,40,68,32,30,9,62,51,22,62,66,54,14,27,99,47,94,14,52,6,31,67,30,60,54,99,6,49,85,32,46,31,63,95,28,79,93,69,76,73,76,36,66,83,95,11,20,68,36,12,90"
dtnsim.node[1].app.destinationEid = "12,28,51,59,109,113,87,103,65,18,97,59,111,93,24,66,100,34,82,38,53,119,110,105,117,39,118,111,99,71,43,104,85,4,2,59,115,32,50,95,76,28,110,113,87,4,98,70,30,60,76,40,9,35,70,53,108,67,19,110,106,31,70,62,106,76,96,87,42,56,87,91,64,10,73,35,39,34,70,104,4,117,46,52,28,14,63,103,53,116,113,70,46,102,13,33,86,95,114,77"
dtnsim.node[1].app.size = "100,500,200,200,200,200,500,50,100,500,500,50,200,100,200,100,200,500,500,50,100,50,200,500,50,50,200,100,500,50,500,200,200,500,50,200,50,50,50,500,50,200,50,200,100,50,500,100,500,200,50,100,200,200,50,200,100,50,50,500,50,500,200,50,50,50,50,200,100,100,200,50,200,50,100,200,100,100,100,100,200,100,100,50,200,100,100,200,50,500,200,200,500,50,500,500,500,50,200,500"
        # Node 2 random traffic
dtnsim.node[2].app.enable = true
dtnsim.node[2].app.bundlesNumber = "28,43,43,31,49,37,28,2,19,12,22,26,6,35,31,2,19,20,20,24,29,48,5,36,28,41,43,36,39,46,18,47,15,27,44,44,10,31,30,1,10,19,17,48,2,37,40,6,9,39,29,8,26,26,25,21,25,28,19,19,21,21,35,44,48,43,4,24,29,22,31,9,1,38,20,8,11,18,10,35,36,21,21,24,35,7,33,42,36,45,46,23,3,7,23,45,44,13,12,4"
dtnsim.node[2].app.start = "96,86,15,61,67,31,43,41,20,9,19,15,12,63,77,86,95,8,50,98,43,20,13,56,57,70,41,52,42,95,37,76,2,25,64,39,36,83,63,100,7,56,4,76,81,40,55,99,81,10,95,73,70,100,26,43,53,82,98,11,29,95,10,98,48,12,25,40,33,61,64,83,49,96,78,47,11,1,99,71,4,49,36,16,53,4,12,79,87,8,92,66,27,16,33,80,84,14,43,31"
dtnsim.node[2].app.destinationEid = "98,114,36,110,40,41,119,31,70,114,106,3,13,79,53,66,23,103,3,60,68,10,46,16,91,90,115,12,120,37,105,67,11,63,51,79,40,80,111,111,29,17,117,35,34,119,45,88,92,60,49,111,39,19,106,4,76,49,50,26,85,39,17,76,105,73,111,81,118,86,28,94,103,101,15,42,75,109,40,112,83,113,102,23,92,41,73,18,47,14,56,51,26,11,91,77,33,88,100,61"
dtnsim.node[2].app.size = "50,100,500,500,50,500,100,100,100,200,100,500,100,50,200,500,50,50,100,100,500,200,200,200,100,200,50,500,50,200,500,100,200,500,50,50,200,500,100,500,100,200,50,500,50,100,500,50,100,200,200,500,200,500,200,50,100,500,500,100,50,100,500,50,50,100,500,50,100,500,500,500,100,200,100,50,500,200,500,500,200,200,50,500,100,200,200,200,100,50,500,500,500,100,500,100,200,500,50,100"
        # Node 3 random traffic
dtnsim.node[3].app.enable = true
dtnsim.node[3].app.bundlesNumber = "24,2,4,13,32,12,34,49,20,39,23,30,34,43,9,36,20,38,13,15,50,6,8,38,49,50,21,27,40,41,19,1,38,50,10,25,18,26,34,9,36,25,37,15,13,1,29,40,14,48,8,10,36,38,37,3,12,16,10,25,40,6,22,11,27,49,24,13,20,3,2,7,11,16,47,35,21,7,32,14,30,19,1,9,32,41,40,45,17,27,34,38,5,16,6,16,8,29,48,27"
dtnsim.node[3].app.start = "78,53,19,26,7,73,27,83,34,44,56,46,35,43,7,20,34,50,62,38,23,45,47,26,86,48,15,27,36,94,77,60,28,42,67,66,72,79,49,82,7,43,71,94,14,54,45,2,99,11,51,11,6,57,29,86,45,59,100,17,86,35,60,11,6,65,63,19,45,30,62,59,45,47,12,94,2,70,94,46,12,42,26,66,72,76,90,1,94,2,30,35,62,78,91,76,13,90,4,29"
dtnsim.node[3].app.destinationEid = "86,32,40,86,87,8,4,4,27,104,72,36,73,16,27,64,115,31,14,42,2,80,116,73,74,34,73,60,8,51,102,2,52,64,74,14,27,58,104,46,26,39,78,115,118,56,39,18,105,107,112,50,69,78,85,35,33,103,61,108,85,86,91,13,46,87,71,43,91,114,107,99,36,81,53,46,2,118,39,107,1,78,120,112,45,74,19,75,34,34,88,38,91,98,84,101,15,77,43,11"
dtnsim.node[3].app.size = "100,50,50,200,50,200,200,100,100,50,200,500,100,50,50,50,500,500,500,50,100,50,100,100,100,500,500,100,50,500,500,100,200,100,500,50,50,100,100,500,500,100,50,100,500,100,200,50,50,50,500,100,50,500,500,100,50,50,500,500,500,50,500,50,200,500,50,50,500,100,200,100,50,50,50,200,500,100,500,200,200,500,200,500,50,100,200,50,200,50,100,50,200,200,50,100,100,500,100,100"
        # Node 4 random traffic
dtnsim.node[4].app.enable = true
dtnsim.node[4].app.bundlesNumber = "23,36,26,15,5,44,37,25,20,6,43,9,12,43,47,49,23,10,32,9,33,46,50,10,18,2,31,13,19,7,27,14,37,2,8,15,12,31,39,48,34,28,27,39,31,38,31,13,26,15,30,16,49,2,29,20,13,23,49,43,29,29,20,30,37,13,9,50,6,40,50,27,7,44,13,15,13,29,16,38,13,38,30,26,13,5,34,15,18,36,31,19,27,41,33,15,12,2,18,33"
dtnsim.node[4].app.start = "61,24,84,34,45,100,58,11,32,18,21,12,81,7,48,83,6,31,42,34,10,39,55,81,46,81,43,41,82,62,74,88,46,41,79,97,35,38,34,18,43,37,62,76,51,19,66,79,54,86,50,63,43,48,38,49,63,30,62,35,41,10,23,34,27,14,19,49,31,25,10,19,58,87,19,71,89,2,56,73,13,86,33,90,23,20,47,65,43,93,22,78,9,22,44,100,94,6,67,80"
dtnsim.node[4].app.destinationEid = "98,108,18,117,69,11,51,89,39,3,14,64,118,78,74,3,78,113,33,100,28,109,85,80,42,10,76,109,16,23,15,70,91,99,107,19,59,49,75,57,26,20,92,22,39,111,89,112,14,112,60,98,75,90,44,37,6,25,72,100,79,58,39,40,56,66,6,60,104,32,66,119,97,19,53,45,77,14,77,27,15,58,65,34,117,84,81,76,73,72,54,72,57,74,106,33,39,106,41,8"
dtnsim.node[4].app.size = "500,50,500,50,50,200,200,50,50,200,500,200,200,200,200,200,500,50,100,200,100,100,500,200,50,200,50,100,500,200,100,500,50,50,50,100,200,200,50,200,50,100,500,100,100,500,100,50,200,200,50,200,200,200,200,50,500,50,500,100,100,500,100,200,500,500,100,50,100,500,500,50,50,100,50,200,50,200,500,50,50,500,100,500,100,100,100,500,50,100,200,50,100,200,200,100,100,200,100,500"
        # Node 5 random traffic
dtnsim.node[5].app.enable = true
dtnsim.node[5].app.bundlesNumber = "48,39,7,41,31,47,6,3,20,39,42,14,2,42,47,49,46,5,5,34,11,5,43,17,13,48,5,22,33,16,8,46,36,3,48,17,19,6,48,15,38,10,7,7,39,12,10,11,49,26,30,49,32,26,33,40,39,4,7,43,45,34,31,10,27,9,34,1,19,31,39,41,36,15,12,23,45,6,37,15,32,40,49,31,15,11,18,49,24,45,4,14,30,50,32,49,12,45,25,18"
dtnsim.node[5].app.start = "97,34,79,17,91,44,79,25,31,58,37,45,23,56,96,42,36,42,49,65,18,21,6,95,56,44,85,100,40,68,46,64,82,14,97,56,17,33,48,4,87,61,60,58,75,74,36,35,20,40,97,72,1,65,20,90,19,73,33,47,74,29,28,61,40,19,37,28,21,65,7,84,41,15,53,70,8,34,66,58,84,82,10,73,46,45,25,96,15,16,46,78,43,82,66,85,84,64,47,88"
dtnsim.node[5].app.destinationEid = "70,29,105,19,22,68,68,29,118,22,90,76,32,83,18,49,36,56,100,116,21,27,24,33,92,84,29,31,86,57,118,47,25,116,77,114,14,108,13,31,10,51,20,11,43,115,100,21,108,26,66,76,70,49,21,6,75,105,53,44,73,119,83,1,116,46,48,52,59,107,42,105,34,101,63,20,1,42,69,81,28,8,59,49,37,90,36,1,19,96,74,119,107,101,59,42,34,9,117,109"
dtnsim.node[5].app.size = "100,500,50,100,50,500,500,500,200,200,100,200,500,100,100,200,50,200,50,50,50,50,500,500,200,50,100,500,100,200,500,100,500,100,100,50,50,100,100,100,200,200,50,50,200,200,200,500,50,100,500,500,100,50,200,100,200,200,100,500,200,100,100,50,50,200,50,500,500,500,500,500,500,200,100,200,50,200,200,100,50,500,50,50,200,50,500,500,100,500,100,200,200,200,100,200,500,50,50,100"
        # Node 6 random traffic
dtnsim.node[6].app.enable = true
dtnsim.node[6].app.bundlesNumber = "49,14,15,46,23,36,9,42,10,50,49,10,50,29,17,10,36,23,46,29,15,35,43,24,18,44,17,49,17,35,15,15,30,12,28,2,7,9,36,13,33,9,14,8,15,13,12,45,10,33,13,19,1,48,45,39,20,18,14,15,1,33,33,44,1,11,42,26,8,25,8,41,41,7,43,31,27,3,34,45,17,50,9,37,42,7,22,31,48,12,26,38,35,37,15,26,21,19,16,28"
dtnsim.node[6].app.start = "40,65,8,27,91,38,6,43,20,61,95,89,25,7,74,88,40,45,2,8,96,97,78,65,88,51,97,64,77,21,13,49,47,56,83,78,50,43,39,25,63,96,79,39,11,44,30,47,15,50,30,68,2,64,62,16,82,46,83,71,37,33,37,48,66,72,37,53,17,89,27,9,12,25,26,7,79,21,25,84,95,18,69,20,65,38,50,82,52,71,11,43,26,70,16,90,74,47,10,47"
dtnsim.node[6].app.destinationEid = "36,104,5,111,61,3,85,49,10,62,48,93,98,11,51,80,14,106,96,78,116,113,40,30,29,32,22,32,107,23,28,93,63,106,78,64,44,10,54,51,19,37,85,59,109,72,90,3,120,106,99,14,44,7,50,43,52,29,100,106,100,34,117,49,34,23,118,58,78,24,103,93,105,110,69,94,64,67,65,76,71,93,93,103,31,88,25,18,14,114,101,86,60,74,111,82,119,56,44,38"
dtnsim.node[6].app.size = "200,500,100,50,100,200,100,50,500,50,50,100,100,100,200,100,100,500,100,50,500,100,100,500,200,200,500,100,200,50,50,500,50,500,50,500,200,100,100,500,500,200,50,100,50,500,500,50,50,200,200,500,50,100,50,100,200,50,100,50,50,200,500,500,200,200,50,200,50,50,50,200,50,200,100,50,200,500,500,200,100,200,500,50,50,50,50,50,50,500,100,500,50,100,50,100,200,200,50,50"
        # Node 7 random traffic
dtnsim.node[7].app.enable = true
dtnsim.node[7].app.bundlesNumber = "6,36,25,7,10,46,25,24,14,15,49,41,26,48,24,39,49,20,20,31,44,40,44,36,37,41,50,4,48,7,48,6,29,33,23,17,49,26,35,7,13,48,42,24,17,9,39,24,16,50,49,19,30,32,7,7,45,35,10,32,6,30,5,33,4,13,19,46,7,2,37,33,12,6,43,34,7,20,16,1,24,4,47,32,29,45,36,30,21,21,40,35,36,6,17,49,8,30,17,49"
dtnsim.node[7].app.start = "58,83,14,2,87,37,8,30,87,46,49,93,49,21,30,12,66,3,81,14,22,29,63,82,18,42,68,2,10,36,97,26,90,11,51,50,52,75,99,9,61,38,31,17,45,89,21,29,45,14,48,72,70,49,35,22,78,44,76,44,45,92,58,19,32,21,99,23,24,8,78,18,14,36,53,58,86,96,89,81,89,14,73,100,15,65,43,36,90,88,55,42,5,82,64,47,89,91,5,22"
dtnsim.node[7].app.destinationEid = "53,44,65,42,49,84,33,96,35,72,69,66,11,43,47,79,21,86,23,11,105,15,69,27,34,35,101,1,51,12,43,64,32,45,87,115,6,85,71,15,99,83,120,101,12,98,81,64,81,91,46,79,117,70,59,27,70,33,94,32,15,70,92,115,28,86,55,15,120,42,66,90,118,27,24,12,36,67,114,71,119,118,111,3,42,99,62,10,54,38,24,17,78,108,66,49,26,96,90,99"
dtnsim.node[7].app.size = "200,200,500,50,100,500,100,50,50,50,200,100,200,100,50,100,200,100,100,200,100,200,50,50,100,100,500,200,200,100,500,500,500,50,200,50,500,100,200,50,500,100,50,500,200,500,50,500,100,50,200,500,500,100,100,50,500,500,100,100,500,500,500,200,50,100,200,50,50,50,100,500,500,100,500,50,100,500,200,200,100,100,200,100,50,50,200,500,100,50,50,200,100,200,50,50,100,100,50,50"
        # Node 8 random traffic
dtnsim.node[8].app.enable = true
dtnsim.node[8].app.bundlesNumber = "18,25,11,32,18,19,41,14,21,4,39,21,20,24,15,24,33,26,30,5,44,11,18,40,18,1,16,2,25,7,16,43,31,45,38,37,15,9,31,1,4,19,32,41,15,38,29,8,6,5,12,18,46,8,35,38,23,28,2,16,28,49,4,35,22,45,47,36,3,8,22,32,1,1,4,11,3,2,12,22,32,27,31,16,19,20,8,34,40,3,12,16,14,27,41,22,33,27,23,8"
dtnsim.node[8].app.start = "3,83,43,75,46,85,12,57,97,20,89,48,42,35,50,54,12,96,26,52,41,43,24,34,48,41,36,35,44,19,5,1,36,11,78,89,14,71,36,17,21,64,100,71,94,43,67,56,5,12,3,71,53,50,57,39,87,30,22,13,81,21,86,87,36,79,81,99,32,2,50,50,54,23,95,38,75,42,55,36,22,28,72,91,29,70,10,1,14,78,74,11,68,100,97,92,66,56,49,31"
dtnsim.node[8].app.destinationEid = "38,69,33,104,86,64,58,37,28,71,33,88,26,37,42,37,43,49,92,83,5,91,64,76,117,90,96,83,89,20,96,92,76,95,73,27,115,9,78,86,47,30,32,106,65,49,65,112,84,81,32,17,98,6,42,30,55,49,47,82,100,30,12,57,14,26,107,114,102,101,106,107,73,9,3,92,53,11,40,88,84,63,52,69,11,2,24,98,77,7,113,118,62,15,28,72,73,64,63,105"
dtnsim.node[8].app.size = "100,100,50,50,500,500,50,200,200,200,500,50,500,500,50,100,50,500,100,100,100,200,500,50,500,500,500,50,100,500,50,200,200,500,100,500,200,50,50,50,100,500,100,50,500,50,500,200,200,500,100,500,50,500,200,50,100,50,50,200,500,500,200,200,500,100,100,50,200,50,50,100,200,50,100,500,50,50,500,100,500,50,100,500,500,500,100,100,50,100,100,100,100,500,100,200,200,100,500,500"
        # Node 9 random traffic
dtnsim.node[9].app.enable = true
dtnsim.node[9].app.bundlesNumber = "33,15,19,23,29,1,34,40,38,23,44,16,12,33,35,43,21,47,39,24,35,41,7,49,14,10,35,22,37,44,31,7,23,23,49,21,29,1,26,16,17,1,34,47,11,32,22,23,1,40,34,35,13,42,20,20,43,47,32,46,21,11,24,46,23,10,12,15,37,2,14,12,11,49,47,31,23,49,38,24,23,32,38,14,12,37,17,37,39,37,48,29,30,34,36,50,2,24,15,48"
dtnsim.node[9].app.start = "78,24,18,85,100,85,15,12,20,36,17,32,99,88,65,71,24,69,78,16,25,15,97,76,21,23,28,48,68,78,79,16,33,19,12,18,55,19,34,92,46,88,1,76,72,64,85,30,56,18,7,57,72,61,55,45,30,77,81,91,74,29,50,82,65,26,67,100,2,59,93,30,99,94,68,78,79,38,36,71,27,73,68,69,63,17,10,15,15,6,77,91,36,65,15,40,5,45,68,89"
dtnsim.node[9].app.destinationEid = "87,57,49,45,50,31,77,79,61,19,66,82,102,53,109,8,52,107,113,8,79,87,84,79,72,95,81,26,107,104,100,72,28,50,58,5,71,44,28,1,15,27,33,47,49,60,12,26,89,63,98,88,20,102,40,26,48,86,62,29,11,53,53,3,39,69,76,110,111,39,3,31,120,50,35,89,51,99,6,105,108,40,59,71,40,105,86,43,117,54,14,74,107,107,62,118,23,120,92,36"
dtnsim.node[9].app.size = "500,50,500,100,200,100,100,500,500,50,50,200,100,100,200,100,50,50,200,200,200,50,500,100,100,500,50,200,100,200,500,50,500,200,50,50,50,500,50,100,500,200,100,200,50,50,200,200,100,100,200,50,200,50,500,50,50,500,200,50,200,500,500,200,200,200,500,500,200,50,200,200,100,100,200,50,100,100,50,50,500,50,200,500,50,100,200,50,500,50,200,50,200,500,50,100,200,100,50,500"
        # Node 10 random traffic
dtnsim.node[10].app.enable = true
dtnsim.node[10].app.bundlesNumber = "9,4,16,37,31,29,8,37,40,20,1,37,13,28,43,27,37,47,11,50,26,22,45,37,33,29,43,31,49,22,34,7,38,21,23,30,24,38,50,12,12,31,44,23,43,15,34,23,38,20,11,38,37,16,47,35,9,18,7,22,29,48,25,44,49,49,8,18,48,49,19,28,8,11,40,9,46,25,41,50,28,48,18,22,39,35,32,4,28,25,36,33,49,17,45,29,13,3,34,22"
dtnsim.node[10].app.start = "91,17,98,25,1,33,26,28,30,60,50,43,61,96,25,43,89,71,47,83,38,47,77,11,27,18,94,48,34,80,13,51,38,24,43,92,89,81,53,66,69,91,22,60,43,5,43,97,11,55,3,88,53,51,79,58,38,36,42,50,4,49,82,49,83,47,85,68,97,29,48,53,61,69,64,95,20,23,22,14,10,98,97,45,27,39,45,81,43,33,74,66,62,72,44,20,72,6,94,75"
dtnsim.node[10].app.destinationEid = "9,64,108,27,97,66,76,77,41,90,21,35,113,59,71,14,46,38,53,11,96,80,26,35,108,92,9,73,108,44,38,97,58,94,28,22,20,110,70,79,21,88,66,52,108,64,99,118,103,113,48,25,98,103,44,74,53,104,12,5,65,6,6,109,40,93,22,8,61,63,95,107,88,25,36,76,13,13,85,25,42,73,76,23,106,20,23,101,63,64,52,77,82,105,94,31,56,82,24,12"
dtnsim.node[10].app.size = "200,100,200,500,200,200,100,100,500,50,100,200,500,500,100,500,500,500,50,500,50,50,500,500,200,500,100,50,500,50,50,100,50,100,50,500,200,50,50,500,50,50,500,100,200,100,50,200,200,50,200,100,500,200,200,50,50,50,200,500,50,500,50,500,200,500,200,500,50,50,100,500,500,500,100,500,500,100,50,200,200,500,500,200,200,500,50,200,100,100,500,200,200,500,50,200,50,500,200,50"
        # Node 11 random traffic
dtnsim.node[11].app.enable = true
dtnsim.node[11].app.bundlesNumber = "12,2,19,8,7,19,12,39,17,25,25,49,46,49,18,37,24,26,28,28,22,49,4,23,10,37,35,24,11,46,28,14,4,1,46,18,34,21,46,36,29,29,11,45,27,30,25,46,41,13,34,10,4,42,36,34,18,50,21,33,48,5,3,50,18,35,30,46,42,35,50,3,35,12,10,23,45,1,46,11,46,11,20,31,20,7,50,48,22,21,19,36,25,33,10,29,31,47,19,8"
dtnsim.node[11].app.start = "56,80,14,64,81,51,40,56,22,77,40,100,72,21,13,17,95,32,46,82,97,23,54,58,83,15,93,7,10,91,94,84,81,8,61,16,12,53,31,34,96,10,94,40,69,61,69,8,2,46,40,68,1,2,63,1,90,59,81,79,79,17,17,66,68,48,36,99,5,41,84,5,89,86,34,71,13,46,17,91,23,35,52,28,92,54,14,2,28,44,54,75,9,67,8,18,49,31,81,69"
dtnsim.node[11].app.destinationEid = "111,50,92,112,40,102,1,36,49,37,45,79,13,73,65,45,114,84,106,78,27,58,85,6,78,100,2,118,2,35,27,9,4,84,100,14,85,17,66,76,21,5,109,5,30,101,39,54,118,43,71,61,68,71,94,71,45,76,37,77,89,23,95,57,59,92,52,51,6,117,56,100,37,84,31,65,50,46,39,31,47,99,10,28,118,50,63,70,88,43,33,40,116,44,35,69,72,29,51,118"
dtnsim.node[11].app.size = "100,500,500,200,200,500,200,50,50,500,200,100,50,200,50,200,100,50,500,200,100,100,100,200,200,100,50,200,50,500,200,200,500,100,500,500,50,50,200,200,200,50,200,500,200,500,200,500,50,500,100,100,200,500,100,100,200,100,500,500,100,100,200,50,200,500,100,50,100,100,500,200,50,100,100,200,500,100,100,50,50,100,500,200,50,200,500,100,50,200,100,100,500,200,100,50,50,50,100,50"
        # Node 12 random traffic
dtnsim.node[12].app.enable = true
dtnsim.node[12].app.bundlesNumber = "19,25,42,41,44,26,15,7,9,15,31,41,5,34,24,30,19,33,33,33,34,24,9,45,4,14,45,22,44,35,36,43,29,24,33,25,17,31,13,43,3,24,40,17,12,28,49,40,13,29,23,28,32,12,41,36,7,41,2,24,41,48,38,9,14,48,47,48,43,39,20,34,25,7,5,24,18,6,23,20,1,21,13,10,10,21,35,44,8,17,47,1,41,20,12,3,11,42,28,28"
dtnsim.node[12].app.start = "63,14,35,29,78,27,44,34,32,44,4,10,94,90,88,2,54,53,47,31,21,19,19,21,52,2,100,99,6,39,21,88,38,30,20,23,15,97,92,33,81,28,36,49,61,33,92,20,32,72,68,92,3,27,69,3,59,63,2,12,27,40,41,47,1,12,77,66,24,11,73,56,22,66,98,49,94,64,86,56,36,13,21,95,50,62,4,46,88,4,17,63,11,45,79,90,44,75,67,71"
dtnsim.node[12].app.destinationEid = "43,31,2,30,89,114,113,65,32,118,13,93,38,18,44,92,77,109,111,88,11,85,46,104,97,73,78,30,35,10,71,13,110,21,35,81,64,34,63,16,3,85,17,22,89,109,54,83,80,36,20,42,60,103,36,94,7,16,22,91,65,92,117,97,41,48,72,69,115,96,3,95,40,92,80,60,50,6,82,95,74,104,77,27,34,37,101,85,110,92,110,63,76,79,92,114,35,97,18,72"
dtnsim.node[12].app.size = "50,50,100,500,200,200,200,500,100,500,100,50,50,100,200,500,200,500,500,100,100,100,200,50,50,100,500,200,200,50,50,100,100,100,100,50,100,100,500,200,100,50,500,50,100,100,100,200,200,50,200,500,100,100,50,500,50,200,50,50,100,200,200,500,50,200,500,50,500,200,200,500,200,50,500,100,100,50,100,100,50,100,200,500,100,50,100,500,500,500,100,50,50,200,100,200,200,50,500,50"
        # Node 13 random traffic
dtnsim.node[13].app.enable = true
dtnsim.node[13].app.bundlesNumber = "24,23,31,48,23,46,9,24,10,20,20,44,16,49,4,37,42,46,1,33,20,34,23,5,40,44,49,5,49,4,41,29,16,31,29,8,41,8,47,49,11,43,31,25,13,41,25,16,47,5,41,27,46,6,9,48,39,30,36,38,20,16,42,18,29,18,37,30,45,46,1,47,41,17,42,10,18,38,39,38,47,31,10,40,30,6,15,41,10,18,48,18,3,33,24,19,21,32,32,15"
dtnsim.node[13].app.start = "46,86,15,94,78,32,81,80,3,11,55,87,38,26,8,39,97,2,25,80,9,16,75,45,39,45,59,87,49,25,90,22,80,31,47,14,56,10,37,59,17,71,11,46,93,20,55,64,88,1,62,55,88,3,51,35,18,56,53,76,89,61,47,88,10,64,16,42,49,21,28,30,63,50,53,56,80,98,5,39,26,1,29,17,7,67,76,48,39,65,38,34,68,13,65,36,89,3,42,4"
dtnsim.node[13].app.destinationEid = "54,115,39,105,102,33,27,107,116,14,41,101,119,76,22,26,22,67,43,57,103,51,59,59,98,97,69,33,33,52,110,21,111,39,84,12,34,51,95,65,90,28,22,52,20,57,69,107,89,72,3,35,59,103,120,39,48,33,77,29,82,61,75,50,28,105,57,70,113,79,2,41,109,20,107,119,101,9,99,79,15,57,18,18,71,57,104,10,34,40,89,44,69,86,40,91,67,32,72,83"
dtnsim.node[13].app.size = "50,200,500,100,50,100,500,200,100,500,500,500,100,50,500,100,50,100,500,500,100,100,500,500,500,50,100,100,500,200,100,500,200,200,100,200,500,200,200,500,500,100,50,500,500,50,200,200,50,200,200,50,50,500,100,500,100,50,50,100,200,100,200,500,200,200,100,200,50,500,50,200,500,500,200,100,500,500,50,500,500,50,200,100,500,100,100,500,500,200,50,200,500,200,50,100,200,100,100,50"
        # Node 14 random traffic
dtnsim.node[14].app.enable = true
dtnsim.node[14].app.bundlesNumber = "27,16,19,21,36,18,35,41,43,48,38,23,50,19,24,35,12,34,42,3,28,44,3,33,10,21,42,48,9,3,47,34,45,27,26,7,46,25,42,18,9,31,42,39,45,38,22,4,28,38,39,21,37,23,29,31,39,16,26,27,18,46,4,39,9,34,20,9,19,35,19,14,50,16,4,5,15,18,21,10,47,10,33,34,50,42,11,9,22,42,28,28,3,43,46,35,47,49,9,1"
dtnsim.node[14].app.start = "11,94,85,30,90,90,54,96,98,12,69,79,1,79,78,68,64,72,57,43,54,22,96,93,80,97,2,29,29,96,54,3,25,16,82,13,2,10,83,17,28,95,58,45,79,44,94,61,37,2,51,49,99,5,46,54,89,84,38,13,6,26,61,69,52,64,4,89,65,17,74,88,20,96,26,93,36,21,17,48,71,90,34,26,69,52,14,10,98,23,75,24,71,28,28,32,86,86,28,53"
dtnsim.node[14].app.destinationEid = "89,83,3,57,73,109,80,97,59,74,7,78,103,7,48,76,108,32,104,50,73,108,74,77,91,82,41,89,33,39,65,97,20,102,44,35,104,22,5,119,45,31,34,43,32,38,108,29,119,105,36,25,120,28,71,60,95,86,57,72,52,2,13,62,111,34,60,101,66,96,35,66,37,94,116,13,51,60,71,18,45,118,82,53,25,119,90,12,10,104,42,118,94,99,93,112,104,87,108,49"
dtnsim.node[14].app.size = "100,100,200,200,200,500,100,100,50,200,50,100,50,50,200,100,100,200,500,50,100,500,100,200,500,50,50,100,100,50,50,50,200,200,500,50,50,500,50,200,200,100,500,500,50,50,100,100,50,50,200,100,50,500,500,500,100,50,50,200,50,500,500,500,200,500,50,100,100,500,200,50,100,200,100,200,200,100,500,200,200,500,500,200,100,500,500,200,100,50,50,100,200,100,200,500,50,200,500,200"
        # Node 15 random traffic
dtnsim.node[15].app.enable = true
dtnsim.node[15].app.bundlesNumber = "42,40,23,35,28,4,31,28,5,8,23,10,43,12,39,3,13,12,32,13,6,44,39,1,22,17,22,6,37,10,20,8,45,35,47,39,7,25,44,19,7,39,10,24,15,22,41,25,32,1,6,29,18,23,3,50,2,9,6,31,27,48,24,45,35,30,27,26,36,23,37,19,7,26,23,18,5,5,10,34,8,47,3,13,47,1,48,37,2,11,39,38,50,41,38,19,3,34,26,43"
dtnsim.node[15].app.start = "87,23,18,96,65,88,88,5,7,24,70,52,21,28,76,65,76,92,22,34,69,9,84,72,68,41,81,8,39,38,77,15,21,17,93,8,98,31,45,52,71,31,28,28,9,65,88,79,40,99,71,94,43,15,72,79,95,24,6,56,88,54,83,1,22,17,28,60,76,41,49,76,46,56,89,5,10,19,29,82,66,51,24,53,95,94,95,5,90,64,17,7,10,4,58,16,27,78,12,12"
dtnsim.node[15].app.destinationEid = "22,96,49,119,7,117,69,117,84,100,92,65,115,82,57,34,114,51,43,74,9,120,111,87,113,96,50,17,38,4,45,54,87,56,71,42,3,17,92,59,111,37,55,112,21,115,110,30,10,17,22,102,118,103,106,23,113,115,55,65,101,22,59,58,87,89,51,2,60,94,71,31,55,90,52,64,53,100,110,29,91,113,67,26,75,22,93,96,1,113,53,56,5,33,119,40,8,114,108,70"
dtnsim.node[15].app.size = "500,50,200,100,200,200,100,200,200,200,200,500,500,500,50,100,200,100,100,500,200,50,100,500,100,100,50,100,200,50,500,200,50,500,500,100,50,100,50,100,100,500,500,500,50,500,100,500,500,50,100,50,100,500,50,50,200,100,500,500,100,500,500,500,50,500,500,200,100,100,500,500,200,100,100,100,100,100,100,200,200,50,200,500,100,500,200,100,500,200,100,500,50,50,200,50,200,200,500,100"
        # Node 16 random traffic
dtnsim.node[16].app.enable = true
dtnsim.node[16].app.bundlesNumber = "24,38,25,34,14,50,29,45,22,32,43,47,45,38,28,32,45,27,42,42,25,45,23,23,5,23,14,38,29,37,15,50,27,22,15,3,37,1,8,15,19,40,6,34,8,35,26,48,4,37,35,29,2,21,50,23,4,48,50,40,34,14,42,6,50,31,26,28,3,33,35,46,35,4,25,46,24,31,44,34,17,21,5,7,15,47,21,2,12,5,6,32,27,22,24,39,31,2,18,24"
dtnsim.node[16].app.start = "56,65,51,7,10,19,36,51,7,72,79,61,7,74,94,95,24,99,46,46,51,75,33,50,99,75,53,95,40,36,82,33,42,53,8,69,1,96,98,43,57,20,95,41,75,60,45,3,74,23,84,63,52,53,6,80,12,99,86,47,34,18,27,57,63,85,59,18,16,99,96,70,35,25,56,63,45,72,41,46,94,32,7,69,19,7,40,51,63,47,82,91,55,37,58,48,46,82,28,62"
dtnsim.node[16].app.destinationEid = "115,113,40,27,52,76,39,19,38,114,66,8,45,56,96,95,87,37,75,30,32,60,100,98,66,43,5,52,64,71,112,56,63,40,36,65,66,61,76,98,2,66,9,28,47,110,30,88,27,19,48,107,95,77,67,95,96,61,17,39,81,13,98,41,34,80,91,31,9,3,20,82,113,34,63,17,88,73,91,114,6,90,45,95,54,118,92,18,47,83,29,94,62,20,1,69,48,12,75,15"
dtnsim.node[16].app.size = "200,100,200,500,50,500,50,200,100,500,100,200,50,200,500,50,200,200,200,50,100,200,100,200,50,50,200,50,200,200,200,500,200,500,200,50,200,50,200,200,100,500,50,500,500,200,500,50,100,50,200,200,200,100,100,50,500,200,100,100,500,100,100,200,50,100,50,500,200,500,500,100,500,500,100,100,200,50,500,100,500,200,50,200,100,200,200,50,500,200,200,500,500,200,100,50,200,200,500,100"
        # Node 17 random traffic
dtnsim.node[17].app.enable = true
dtnsim.node[17].app.bundlesNumber = "2,7,1,49,38,40,6,19,14,20,21,20,8,25,5,28,8,14,17,43,42,3,1,49,33,27,7,34,45,44,30,47,15,45,23,42,26,12,31,12,28,46,12,50,23,20,11,4,36,1,47,12,4,29,24,3,48,1,24,33,17,39,6,41,19,21,41,50,24,33,29,5,20,27,36,6,4,40,28,40,13,42,38,41,28,16,17,42,48,21,5,42,8,12,29,11,40,5,33,40"
dtnsim.node[17].app.start = "71,2,85,26,65,80,4,10,13,20,37,58,9,32,4,14,88,92,36,13,79,92,37,5,81,26,9,78,94,62,18,32,48,56,22,53,28,69,95,56,37,35,31,2,93,7,97,49,38,5,1,74,42,51,25,45,10,22,99,28,12,31,93,47,11,21,18,35,67,42,91,91,60,14,29,81,9,20,34,4,10,35,90,38,39,41,40,24,78,88,45,69,67,40,27,22,95,15,51,12"
dtnsim.node[17].app.destinationEid = "86,25,6,8,56,83,50,76,76,94,60,78,83,28,110,87,48,71,85,55,73,18,52,119,92,12,95,93,94,67,43,34,12,36,117,79,90,107,30,51,89,61,107,73,7,67,105,53,30,64,81,10,85,4,39,77,67,68,16,21,87,48,8,82,18,33,22,95,45,115,57,87,57,55,24,63,64,57,88,104,69,29,111,55,36,20,37,69,38,35,33,54,10,6,62,69,106,101,108,52"
dtnsim.node[17].app.size = "500,100,200,200,500,500,500,200,100,50,200,200,50,500,100,500,500,500,200,50,200,50,500,500,100,200,50,50,50,50,200,50,500,200,50,200,100,100,500,200,50,500,50,100,500,500,200,50,100,50,500,500,50,500,500,500,100,200,200,500,50,200,200,500,50,500,500,50,100,500,50,100,200,50,100,200,50,100,50,500,50,100,200,200,500,50,500,200,500,500,200,100,200,200,100,200,50,200,100,100"
        # Node 18 random traffic
dtnsim.node[18].app.enable = true
dtnsim.node[18].app.bundlesNumber = "12,12,11,37,40,25,21,9,37,23,32,12,10,19,42,17,31,32,18,37,15,4,46,36,43,5,30,1,14,16,24,10,46,36,17,21,6,32,49,42,34,39,19,43,3,40,45,38,32,18,34,35,28,28,24,47,41,12,41,20,48,9,41,35,19,2,18,43,11,50,45,14,33,9,19,26,4,35,21,29,22,27,11,11,32,46,44,2,19,25,19,41,40,2,5,16,14,5,6,29"
dtnsim.node[18].app.start = "55,38,53,7,49,14,84,52,94,32,22,82,21,16,59,50,91,78,27,13,2,20,52,88,60,98,1,58,15,59,36,49,55,54,7,38,66,7,35,12,68,55,87,80,65,83,91,9,8,17,35,67,67,59,80,96,73,28,23,4,15,59,11,7,57,14,7,27,81,47,51,55,26,53,16,3,18,85,80,80,50,53,4,64,74,41,58,22,66,66,20,87,76,73,56,70,45,42,10,93"
dtnsim.node[18].app.destinationEid = "44,92,56,51,29,102,1,79,33,46,22,75,64,88,63,3,24,42,54,36,102,49,118,7,36,9,17,80,98,46,8,109,100,109,108,45,16,8,83,79,84,37,23,109,109,72,90,14,100,56,4,45,60,94,58,102,36,97,107,62,114,99,106,119,75,82,100,97,95,26,55,16,76,97,39,78,22,13,54,36,63,46,75,81,35,116,42,53,65,17,68,67,73,11,12,21,13,88,33,40"
dtnsim.node[18].app.size = "200,200,100,500,500,50,500,200,100,200,100,500,50,500,500,50,200,100,200,100,50,500,50,50,50,50,100,100,100,100,200,50,500,500,200,50,50,100,500,200,200,500,200,500,500,500,500,500,50,100,100,500,50,50,500,500,100,500,500,500,200,100,100,200,100,500,100,50,50,500,100,100,500,500,500,100,200,100,200,500,200,100,50,100,50,50,50,100,500,50,200,200,100,50,50,200,100,200,100,200"
        # Node 19 random traffic
dtnsim.node[19].app.enable = true
dtnsim.node[19].app.bundlesNumber = "23,35,14,26,20,32,20,29,39,22,16,19,14,25,35,38,17,44,46,44,33,10,19,42,29,1,12,27,27,23,32,38,46,48,2,38,17,44,3,2,46,1,26,50,36,6,20,15,26,25,7,16,43,35,6,42,37,34,33,31,5,16,15,35,23,44,42,8,22,24,2,32,10,45,13,37,24,39,18,26,31,48,26,39,36,36,5,12,24,7,47,16,8,19,41,15,34,19,44,31"
dtnsim.node[19].app.start = "78,83,76,70,91,54,29,67,54,93,26,30,13,83,34,12,47,29,37,39,11,82,19,25,77,95,29,16,9,95,14,98,22,62,3,58,5,53,84,57,49,4,18,52,22,90,55,39,70,15,27,75,2,11,10,38,90,73,25,16,22,30,49,98,93,66,29,9,36,95,92,98,28,96,89,74,35,36,99,17,61,99,29,85,91,47,59,39,65,43,96,60,28,31,82,32,36,94,58,33"
dtnsim.node[19].app.destinationEid = "23,23,41,118,88,93,69,48,35,68,92,88,108,55,35,5,86,20,53,105,111,21,97,66,42,37,99,72,17,116,120,71,42,67,38,112,108,63,47,18,6,86,61,2,3,37,16,49,60,45,28,29,93,32,63,17,10,98,7,74,26,110,54,51,77,14,6,44,51,70,48,81,4,58,41,109,107,67,77,103,107,113,83,59,2,114,64,11,72,80,8,43,31,70,54,43,20,63,14,51"
dtnsim.node[19].app.size = "500,500,200,200,100,100,50,50,500,100,500,100,100,100,100,100,500,100,200,200,100,500,50,50,500,50,50,500,500,500,50,500,500,500,500,200,50,200,100,100,200,200,100,50,50,500,100,200,200,500,100,200,200,500,200,100,500,50,100,100,200,500,50,100,50,200,100,200,500,200,500,500,100,100,200,500,200,100,100,100,500,500,50,50,50,50,100,200,200,200,500,200,500,500,100,200,500,100,500,200"
        # Node 20 random traffic
dtnsim.node[20].app.enable = true
dtnsim.node[20].app.bundlesNumber = "44,24,8,22,25,35,15,24,14,17,18,10,20,20,35,48,34,50,26,33,36,37,32,46,6,3,47,12,10,44,27,50,10,32,49,30,43,19,5,27,45,25,13,36,40,12,48,20,16,10,40,38,42,31,46,26,48,11,26,1,50,44,23,19,50,8,43,31,22,13,41,8,5,5,21,16,37,1,15,8,40,31,50,18,14,9,38,23,36,20,16,50,16,19,18,50,18,44,13,31"
dtnsim.node[20].app.start = "71,32,53,97,2,45,90,25,17,7,74,22,16,12,3,81,92,17,68,52,64,1,71,73,88,17,75,40,74,83,4,75,24,68,88,46,33,90,6,66,43,61,92,30,1,71,90,45,74,15,78,74,20,51,93,18,56,39,86,7,22,32,99,77,6,31,32,65,74,90,69,65,28,56,42,71,12,98,100,50,76,21,28,66,53,2,96,99,65,78,37,11,57,55,42,37,84,53,15,34"
dtnsim.node[20].app.destinationEid = "120,49,76,111,4,64,3,62,115,83,86,80,52,30,101,46,8,107,40,105,80,77,15,22,120,39,4,21,94,37,25,52,111,105,88,94,119,111,49,109,56,7,68,57,88,92,55,62,75,50,41,109,28,120,31,61,116,55,32,62,94,49,65,10,90,101,92,105,120,28,15,106,70,39,75,11,15,15,67,13,63,106,35,86,64,63,120,120,7,37,43,113,114,85,5,117,69,53,56,19"