[General]
network = src.dtnsim										
repeat = 1
allow-object-stealing-on-deletion = true

# Simulation end time
sim-time-limit = 84600s

# Nodes quantity (identifiers (EiDs) matches their index, EiD=0 is ignored)			
dtnsim.nodesNumber = 180
dtnsim.node[*].icon = "satellite"

# Nodes's failure rates
dtnsim.node[*].fault.enable = true
dtnsim.node[*].fault.meanTTF = 190s
dtnsim.node[*].fault.meanTTR = 10s

# Mobility
dtnsim.node[*].hasMobility = true
dtnsim.node[*].norad.satIndex = parentIndex()
dtnsim.node[*].norad.satName = "sat"
**.updateInterval = 20s
**.numOfSats = 180
**.satPerPlane = 15
**.altitude = 540
**.planes = 12
**.phaseOffset = 7

dtnsim.node[*].dtn.routing = "antop"
dtnsim.node[*].dtn.printRoutingDebug = true

# --- Random Traffic Configuration ---
# Node 1 random conversational traffic
dtnsim.node[1].app.enable = true
dtnsim.node[1].app.bundlesNumber = "5,4,5,1,2,3,3,1,5,2,5,5,4,5,4,5,3,3,4,5,1,5,3,1,2,5,1,3,4,4,2,5,3,5,4,2,2,5,4,2,5,3,3,5,2,1,3,5,4,1,5,5,2,3,4,5,3,1,4,4,5,2,1,3,3,4,3,3,3,1,5,2,3,1,3,3,5,4,2,3,3,5,1,1,3,1,3,3,5,3,4,4,5,1,1,1,1,5,2,3"
dtnsim.node[1].app.start = "83,25,25,45,9,43,37,50,77,49,57,63,52,28,26,69,78,81,92,93,94,97,18,98,78,23,67,45,34,14,57,5,84,65,95,94,73,48,74,80,63,11,44,87,99,29,31,72,25,46,66,49,83,96,45,81,16,96,66,24,40,55,45,95,42,26,45,28,55,28,1,57,26,64,91,49,93,52,2,54,6,61,87,31,58,78,76,1,74,58,75,81,13,32,95,83,45,70,83,20"
dtnsim.node[1].app.destinationEid = "2,2,2,2,2,2,2,2,2,2,2,2,2,2,2,2,2,2,2,2,2,2,2,2,2,2,2,2,2,2,2,2,2,2,2,2,2,2,2,2,2,2,2,2,2,2,2,2,2,2,2,2,2,2,2,2,2,2,2,2,2,2,2,2,2,2,2,2,2,2,2,2,2,2,2,2,2,2,2,2,2,2,2,2,2,2,2,2,2,2,2,2,2,2,2,2,2,2,2,2"
dtnsim.node[1].app.size = "200,50,200,500,500,100,100,100,100,200,500,200,100,500,500,200,100,100,100,100,100,100,50,500,500,50,50,500,500,100,200,50,500,100,200,500,50,50,50,100,100,100,50,500,500,500,100,100,500,500,500,50,50,50,100,50,200,200,500,500,200,100,50,500,200,50,500,200,50,100,500,200,100,500,100,200,50,200,50,50,200,100,50,200,500,500,500,500,200,50,100,500,500,200,500,200,200,100,50,500"
# Node 2 random conversational traffic
dtnsim.node[2].app.enable = true
dtnsim.node[2].app.bundlesNumber = "1,1,2,1,1,2,1,1,5,2,4,5,5,1,3,5,3,1,2,3,2,2,5,3,4,3,4,4,4,2,3,4,5,2,5,5,3,1,4,3,1,1,2,4,3,1,4,5,3,5,1,2,1,1,5,1,5,4,1,2,5,5,1,2,2,3,4,2,1,1,5,3,5,4,1,1,3,3,3,3,4,1,5,1,5,2,5,5,4,2,2,4,1,1,3,4,1,1,2,4"
dtnsim.node[2].app.start = "91,26,29,50,14,57,65,57,36,34,80,87,100,96,99,100,85,48,40,22,67,8,94,71,100,95,82,100,36,32,80,33,54,67,93,46,26,97,67,46,47,29,48,7,72,55,11,94,85,81,7,65,80,82,14,97,85,93,27,100,43,31,8,87,27,80,100,67,70,52,65,69,99,65,86,66,81,30,14,42,48,9,44,71,78,71,77,26,79,8,17,39,6,84,81,24,55,87,20,16"
dtnsim.node[2].app.destinationEid = "1,1,1,1,1,1,1,1,1,1,1,1,1,1,1,1,1,1,1,1,1,1,1,1,1,1,1,1,1,1,1,1,1,1,1,1,1,1,1,1,1,1,1,1,1,1,1,1,1,1,1,1,1,1,1,1,1,1,1,3,3,3,3,3,3,3,3,3,3,3,3,3,3,3,3,3,3,3,3,3,3,3,3,3,3,3,3,3,3,3,3,3,3,3,3,3,3,3,3,3"
dtnsim.node[2].app.size = "500,500,200,50,500,200,500,500,100,100,200,100,50,50,50,500,100,200,200,100,500,500,500,50,500,500,200,100,100,100,200,50,200,200,50,500,100,500,100,500,100,100,200,200,50,50,500,50,50,200,500,500,100,50,100,100,100,200,500,200,500,100,100,50,200,200,500,200,100,50,100,100,50,200,500,500,200,100,50,100,200,50,500,50,100,100,50,500,100,200,50,100,500,50,50,200,200,100,50,200"
# Node 3 random conversational traffic
dtnsim.node[3].app.enable = true
dtnsim.node[3].app.bundlesNumber = "2,1,1,1,2,1,5,1,2,4,5,3,5,4,1,3,5,1,2,3,2,2,2,5,3,5,2,1,3,1,1,5,4,5,3,1,3,4,5,4,2,3,3,4,5,2,3,2,4,4,3,2,2,5,2,1,2,2,1,1,2,4,1,3,4,3,4,4,5,2,3,5,1,5,4,3,5,1,1,5,5,4,5,3,5,4,3,1,5,5,2,4,2,1,3,4,1,2,1,5"
dtnsim.node[3].app.start = "52,32,12,90,29,88,100,69,62,100,66,75,90,21,80,80,86,29,80,12,18,87,91,65,30,23,79,78,80,25,33,50,80,100,52,21,13,10,67,95,25,18,86,46,96,76,32,66,15,66,73,95,14,34,41,3,51,45,49,95,6,38,17,14,79,31,76,28,37,22,16,34,23,64,85,97,44,17,3,38,41,8,45,38,80,43,68,92,40,4,56,65,63,64,83,47,95,21,73,74"
dtnsim.node[3].app.destinationEid = "2,2,2,2,2,2,2,2,2,2,2,2,2,2,2,2,2,2,2,2,2,2,2,2,2,2,4,4,4,4,4,4,4,4,4,4,4,4,4,4,4,4,4,4,4,4,4,4,4,4,4,4,4,4,4,4,4,4,4,4,4,4,4,4,4,4,4,4,4,4,4,4,4,4,4,4,4,4,4,4,4,4,4,4,4,4,4,4,4,4,4,4,4,4,4,4,4,4,4,4"
dtnsim.node[3].app.size = "50,100,200,200,200,200,200,50,50,500,50,500,100,200,100,500,500,200,100,200,100,50,100,50,100,50,500,50,500,200,200,500,500,500,50,200,50,200,100,50,50,50,100,50,500,200,200,50,200,200,500,200,200,500,500,50,50,100,50,100,200,50,500,500,200,200,200,500,500,500,50,50,200,500,500,100,50,100,100,50,50,500,200,500,100,50,200,100,100,50,100,50,100,100,500,100,200,50,100,200"
# Node 4 random conversational traffic
dtnsim.node[4].app.enable = true
dtnsim.node[4].app.bundlesNumber = "4,5,1,3,2,2,1,4,1,3,5,5,2,1,5,4,4,3,2,2,3,2,1,5,1,4,2,4,4,3,2,1,1,3,4,2,3,2,1,1,5,5,5,5,1,4,5,5,5,3,3,2,5,5,5,4,2,1,2,4,5,3,3,4,1,4,4,2,2,5,1,5,4,4,1,3,4,3,1,2,1,5,1,4,4,4,4,5,3,3,2,2,2,2,5,4,2,3,3,2"
dtnsim.node[4].app.start = "87,31,52,88,100,55,27,18,72,98,26,99,77,36,69,24,74,99,18,49,59,47,56,19,15,32,47,44,25,66,86,45,13,47,46,18,46,88,69,43,72,86,96,26,91,55,45,66,49,37,37,93,97,95,24,76,41,45,4,14,94,43,76,12,94,18,83,86,1,14,63,59,52,49,2,42,18,100,64,99,82,48,8,68,95,55,33,89,78,2,61,75,23,70,60,90,44,33,27,23"
dtnsim.node[4].app.destinationEid = "3,3,3,3,3,3,3,3,3,3,3,3,3,3,3,3,3,3,3,3,3,3,3,3,3,3,3,3,3,3,3,3,3,3,3,3,3,3,3,3,3,3,3,3,5,5,5,5,5,5,5,5,5,5,5,5,5,5,5,5,5,5,5,5,5,5,5,5,5,5,5,5,5,5,5,5,5,5,5,5,5,5,5,5,5,5,5,5,5,5,5,5,5,5,5,5,5,5,5,5"
dtnsim.node[4].app.size = "100,100,500,500,100,100,200,200,200,500,500,200,100,100,100,50,50,200,200,200,50,100,500,500,100,100,200,500,200,100,50,50,100,500,50,100,50,100,100,100,100,500,50,100,200,50,50,100,100,100,200,100,500,100,100,50,100,200,200,200,50,200,200,500,50,200,500,500,50,50,500,100,500,200,50,500,50,500,200,200,500,100,100,500,50,100,50,50,100,50,200,200,200,50,200,200,100,200,100,500"
# Node 5 random conversational traffic
dtnsim.node[5].app.enable = true
dtnsim.node[5].app.bundlesNumber = "5,2,4,3,4,2,4,5,3,5,4,3,5,2,5,4,1,4,5,3,5,4,4,2,2,3,4,5,4,2,1,4,2,2,3,3,5,3,3,3,4,4,3,3,1,2,2,2,5,3,3,5,4,5,4,1,4,2,5,3,2,3,4,4,1,1,1,1,1,1,3,1,5,4,5,1,3,1,2,5,2,3,4,2,5,5,5,2,3,2,5,5,4,1,4,2,3,2,3,1"
dtnsim.node[5].app.start = "94,60,46,76,38,47,100,98,33,77,49,23,99,48,77,97,85,8,73,60,26,100,72,62,38,91,5,83,72,43,35,26,6,73,82,1,17,66,17,66,65,69,93,6,95,50,28,19,23,54,54,19,29,53,56,53,71,82,98,86,71,47,78,69,73,48,52,91,39,23,51,99,85,69,66,62,40,28,53,5,56,63,16,44,17,4,98,86,8,54,10,21,5,84,32,8,98,66,48,33"
dtnsim.node[5].app.destinationEid = "4,4,4,4,4,4,4,4,4,4,4,4,4,4,4,4,4,4,4,4,4,4,4,4,4,4,4,4,4,4,4,4,6,6,6,6,6,6,6,6,6,6,6,6,6,6,6,6,6,6,6,6,6,6,6,6,6,6,6,6,6,6,6,6,6,6,6,6,6,6,6,6,6,6,6,6,6,6,6,6,6,6,6,6,6,6,6,6,6,6,6,6,6,6,6,6,6,6,6,6"
dtnsim.node[5].app.size = "200,50,500,100,100,500,500,500,500,500,100,200,200,500,50,200,100,500,200,100,100,500,500,50,50,200,500,50,50,100,500,500,200,200,50,50,500,100,200,500,500,100,100,200,500,100,200,50,500,50,100,500,100,100,100,50,50,200,100,500,100,50,100,50,500,200,50,500,500,100,50,200,50,50,200,50,200,200,50,100,500,500,50,200,200,100,100,500,200,100,100,200,50,200,200,100,200,100,100,200"
# Node 6 random conversational traffic
dtnsim.node[6].app.enable = true
dtnsim.node[6].app.bundlesNumber = "3,4,3,5,5,5,5,3,2,3,3,1,5,1,3,2,5,2,1,3,5,5,4,1,2,2,2,3,1,3,2,4,3,4,2,2,5,1,3,1,4,4,1,2,1,5,4,2,4,2,5,5,3,1,3,1,2,5,5,4,1,2,1,5,4,1,3,1,2,1,3,3,1,4,5,1,2,1,3,3,2,5,1,1,3,2,4,2,4,2,1,1,4,5,5,5,2,5,2,2"
dtnsim.node[6].app.start = "83,84,8,19,68,27,67,67,100,10,100,37,20,55,29,33,66,61,77,86,99,85,76,82,57,58,30,57,91,63,41,29,7,58,48,26,23,94,36,11,54,41,96,81,51,21,1,92,20,30,32,18,32,25,65,92,41,61,70,17,96,12,91,46,29,59,37,16,62,75,95,60,77,61,5,94,54,87,100,68,74,41,30,91,92,48,93,53,8,53,76,93,14,32,61,83,60,88,57,81"
dtnsim.node[6].app.destinationEid = "5,5,5,5,5,5,5,5,5,5,5,5,5,5,5,5,5,5,5,5,5,5,5,5,5,5,5,5,5,5,5,5,5,5,5,5,5,5,5,5,5,5,7,7,7,7,7,7,7,7,7,7,7,7,7,7,7,7,7,7,7,7,7,7,7,7,7,7,7,7,7,7,7,7,7,7,7,7,7,7,7,7,7,7,7,7,7,7,7,7,7,7,7,7,7,7,7,7,7,7"
dtnsim.node[6].app.size = "200,100,100,500,50,50,200,500,50,500,50,100,50,500,200,100,100,200,200,200,200,100,100,200,500,200,500,50,50,500,100,100,50,100,50,500,200,50,500,100,500,500,100,100,500,50,200,500,200,200,100,100,50,100,200,100,500,50,200,200,100,50,50,50,500,500,100,50,100,500,50,50,50,50,500,50,500,100,100,500,500,100,200,50,100,100,200,50,50,50,200,200,50,100,50,200,500,200,100,100"
# Node 7 random conversational traffic
dtnsim.node[7].app.enable = true
dtnsim.node[7].app.bundlesNumber = "3,3,4,3,5,1,4,5,3,2,3,2,5,3,1,1,1,2,5,3,2,2,3,1,4,5,2,3,5,3,1,3,1,1,1,4,4,2,2,5,2,3,4,1,5,4,5,4,1,1,1,1,1,5,2,2,4,1,4,5,5,3,2,2,1,5,1,1,5,4,2,3,5,4,2,1,3,5,1,5,2,2,5,1,1,5,1,4,1,4,1,3,3,2,3,2,1,5,3,1"
dtnsim.node[7].app.start = "59,8,23,35,38,66,46,63,74,100,47,34,77,97,83,67,6,96,82,48,99,95,54,95,62,18,62,84,33,66,90,60,97,48,77,74,87,66,64,7,14,34,70,1,71,48,28,41,95,15,15,7,96,80,97,78,87,16,48,22,71,3,86,20,64,4,86,72,71,95,99,30,47,37,83,98,70,39,11,31,65,10,32,69,94,25,3,37,55,76,16,56,34,90,100,58,5,40,8,66"
dtnsim.node[7].app.destinationEid = "6,6,6,6,6,6,6,6,6,6,6,6,6,6,6,6,6,6,6,6,6,6,6,6,6,6,6,6,6,6,6,6,8,8,8,8,8,8,8,8,8,8,8,8,8,8,8,8,8,8,8,8,8,8,8,8,8,8,8,8,8,8,8,8,8,8,8,8,8,8,8,8,8,8,8,8,8,8,8,8,8,8,8,8,8,8,8,8,8,8,8,8,8,8,8,8,8,8,8,8"
dtnsim.node[7].app.size = "100,500,500,100,200,100,500,100,200,100,50,200,200,500,500,500,50,100,50,50,500,200,100,200,500,500,200,100,100,50,200,200,200,500,100,200,200,200,50,200,200,100,100,50,200,100,100,200,200,100,100,500,500,500,50,200,500,500,200,500,200,50,100,200,50,100,500,200,100,200,200,200,200,50,100,500,500,50,50,50,50,100,500,50,200,500,200,50,500,50,100,200,200,200,50,200,100,100,100,200"
# Node 8 random conversational traffic
dtnsim.node[8].app.enable = true
dtnsim.node[8].app.bundlesNumber = "3,1,5,4,2,5,3,2,1,4,5,3,3,5,2,1,5,4,2,2,2,4,3,2,4,3,4,1,1,4,5,3,2,1,1,2,4,2,4,2,2,4,3,1,4,3,4,4,2,1,5,2,3,1,3,1,2,2,4,4,4,4,2,1,1,1,1,1,3,5,1,3,3,2,2,5,5,1,2,3,1,3,5,3,3,4,1,2,1,1,5,3,2,1,1,5,1,2,5,1"
dtnsim.node[8].app.start = "54,78,69,43,78,52,31,45,97,23,97,90,92,58,24,10,88,79,76,97,100,32,53,44,100,38,75,15,79,96,35,81,42,100,15,47,73,100,96,35,34,97,80,82,37,45,16,41,73,42,24,54,41,75,11,39,45,8,99,39,53,93,73,75,96,50,81,42,22,8,36,34,57,42,31,27,19,30,100,49,39,44,22,77,31,94,51,15,87,70,95,88,36,79,71,44,33,23,29,75"
dtnsim.node[8].app.destinationEid = "7,7,7,7,7,7,7,7,7,7,7,7,7,7,7,7,7,7,7,7,7,7,7,7,7,7,7,7,7,7,7,7,7,7,7,7,7,9,9,9,9,9,9,9,9,9,9,9,9,9,9,9,9,9,9,9,9,9,9,9,9,9,9,9,9,9,9,9,9,9,9,9,9,9,9,9,9,9,9,9,9,9,9,9,9,9,9,9,9,9,9,9,9,9,9,9,9,9,9,9"
dtnsim.node[8].app.size = "500,50,50,100,500,200,100,200,500,200,100,500,500,100,500,100,500,50,50,500,200,200,50,50,200,50,50,500,200,100,50,200,50,50,100,100,100,50,500,500,100,200,100,200,200,200,100,100,100,50,500,50,100,100,50,200,500,200,100,200,500,500,500,50,50,100,50,200,200,100,500,50,500,500,200,500,50,50,200,200,50,50,50,200,200,100,500,100,200,100,100,500,200,50,200,200,50,500,100,100"
# Node 9 random conversational traffic
dtnsim.node[9].app.enable = true
dtnsim.node[9].app.bundlesNumber = "3,2,3,1,5,5,1,3,5,4,3,2,5,3,1,3,4,3,4,2,2,2,2,3,1,4,4,5,5,3,5,3,4,1,5,4,5,1,2,3,5,1,4,5,3,1,5,1,5,3,2,5,3,3,1,3,4,2,1,5,3,5,4,2,3,5,3,2,1,4,2,2,2,4,1,4,2,5,1,3,2,2,2,5,4,3,4,1,5,3,3,2,1,2,4,4,4,4,5,5"
dtnsim.node[9].app.start = "97,41,87,83,41,50,22,44,43,34,18,47,51,9,100,59,80,82,100,89,45,28,14,40,65,52,28,52,47,79,35,98,58,88,72,99,81,81,47,39,39,78,11,13,59,98,82,78,39,67,28,61,47,81,46,62,76,70,86,14,97,54,80,91,57,53,48,9,17,36,52,13,40,75,30,22,95,54,72,64,1,31,84,44,97,72,29,71,62,26,5,1,81,57,34,55,30,21,87,29"
dtnsim.node[9].app.destinationEid = "8,8,8,8,8,8,8,8,8,8,8,8,8,8,8,8,8,8,8,8,8,8,8,8,8,8,8,8,8,8,8,8,8,8,8,8,8,8,8,8,8,8,10,10,10,10,10,10,10,10,10,10,10,10,10,10,10,10,10,10,10,10,10,10,10,10,10,10,10,10,10,10,10,10,10,10,10,10,10,10,10,10,10,10,10,10,10,10,10,10,10,10,10,10,10,10,10,10,10,10"
dtnsim.node[9].app.size = "50,100,100,200,200,500,500,50,100,50,200,100,100,50,200,50,50,50,50,50,50,500,200,100,500,100,500,200,500,100,200,500,100,100,500,500,500,200,50,50,500,500,500,50,50,50,500,200,50,200,200,200,200,100,100,200,500,50,100,500,500,50,50,500,200,50,100,50,50,50,100,50,500,50,200,200,100,100,100,200,50,200,50,200,500,100,50,100,200,500,100,500,50,100,100,500,200,200,50,200"
# Node 10 random conversational traffic
dtnsim.node[10].app.enable = true
dtnsim.node[10].app.bundlesNumber = "1,2,1,4,4,3,4,3,1,5,2,4,4,2,1,5,1,5,2,4,3,1,4,2,3,2,3,4,3,1,5,5,5,3,1,5,2,2,2,2,5,3,2,1,4,5,5,2,2,3,1,4,5,2,2,1,3,3,4,2,4,3,2,4,1,4,4,4,1,1,2,3,3,2,5,5,2,3,4,5,2,1,2,4,1,2,1,4,2,1,1,4,3,3,3,1,1,2,4,1"
dtnsim.node[10].app.start = "19,20,60,91,88,70,66,51,86,54,79,88,16,100,61,65,14,26,61,85,98,62,76,68,10,88,48,98,73,32,66,35,6,37,59,29,96,57,81,79,40,4,81,41,14,87,59,54,57,77,76,43,64,93,53,67,74,8,51,55,42,74,47,38,26,1,90,89,4,46,26,72,5,47,6,16,45,13,23,39,74,94,7,39,30,83,3,22,16,84,46,36,35,97,76,44,66,72,83,100"
dtnsim.node[10].app.destinationEid = "9,9,9,9,9,9,9,9,9,9,9,9,9,9,9,9,9,9,9,9,9,9,9,9,9,9,9,9,9,9,9,9,9,9,9,9,9,11,11,11,11,11,11,11,11,11,11,11,11,11,11,11,11,11,11,11,11,11,11,11,11,11,11,11,11,11,11,11,11,11,11,11,11,11,11,11,11,11,11,11,11,11,11,11,11,11,11,11,11,11,11,11,11,11,11,11,11,11,11,11"
dtnsim.node[10].app.size = "100,100,200,500,200,50,500,200,200,100,100,500,500,50,500,500,50,50,100,100,50,100,100,50,50,50,200,100,50,200,500,50,100,500,100,200,500,200,500,200,200,500,500,50,50,50,100,500,100,200,200,100,50,100,100,200,500,200,50,50,500,500,100,200,50,500,50,100,100,50,50,100,200,50,50,500,500,200,50,500,50,500,500,100,100,200,500,50,500,100,500,200,500,500,500,200,100,50,100,500"
# Node 11 random conversational traffic
dtnsim.node[11].app.enable = true
dtnsim.node[11].app.bundlesNumber = "1,1,2,1,5,2,1,2,4,1,3,4,3,4,1,2,1,4,2,4,2,4,5,4,4,1,3,3,2,2,3,3,1,5,3,3,5,2,1,4,4,1,4,2,2,4,4,4,4,4,3,5,5,2,4,5,3,1,1,3,1,1,4,3,3,4,3,5,3,1,4,1,2,5,4,1,1,5,5,1,1,1,4,4,5,4,1,1,3,5,3,3,4,5,3,5,5,3,3,1"
dtnsim.node[11].app.start = "80,48,7,84,18,78,80,47,72,100,55,78,57,83,50,9,99,11,55,30,6,48,12,40,97,87,24,94,45,44,79,49,71,82,84,48,81,71,15,56,56,58,48,26,17,66,26,97,71,68,53,80,89,87,95,61,54,30,81,82,79,38,86,44,15,42,86,25,71,85,36,55,82,96,95,3,18,39,37,67,3,52,73,23,32,53,22,94,67,63,5,38,33,68,39,51,24,36,19,80"
dtnsim.node[11].app.destinationEid = "10,10,10,10,10,10,10,10,10,10,10,10,10,10,10,10,10,10,10,10,10,10,10,10,10,10,10,10,10,10,10,10,10,10,10,12,12,12,12,12,12,12,12,12,12,12,12,12,12,12,12,12,12,12,12,12,12,12,12,12,12,12,12,12,12,12,12,12,12,12,12,12,12,12,12,12,12,12,12,12,12,12,12,12,12,12,12,12,12,12,12,12,12,12,12,12,12,12,12,12"
dtnsim.node[11].app.size = "200,50,200,200,500,50,50,200,50,500,100,200,50,200,200,500,500,200,200,500,50,500,100,100,50,200,50,100,50,50,100,500,200,50,100,50,100,100,500,200,50,100,500,50,500,100,200,100,500,500,500,500,50,50,200,200,50,100,100,50,200,50,500,100,100,200,500,200,100,500,100,200,500,500,500,500,200,500,200,200,50,100,500,500,50,500,100,500,200,500,200,500,500,200,500,500,500,100,200,200"
# Node 12 random conversational traffic
dtnsim.node[12].app.enable = true
dtnsim.node[12].app.bundlesNumber = "2,3,2,2,4,1,2,5,2,1,5,5,5,5,3,3,1,1,5,2,1,3,4,3,1,3,3,2,5,3,4,5,5,4,3,4,2,5,1,2,2,1,5,5,1,4,3,2,2,5,3,1,2,3,1,5,2,4,4,4,3,2,3,5,5,5,4,1,1,5,4,5,2,5,3,3,4,4,1,2,4,5,1,4,4,5,5,3,1,4,4,5,4,4,2,5,4,1,5,5"
dtnsim.node[12].app.start = "53,84,60,25,72,30,99,99,96,97,37,82,91,82,43,94,49,23,50,90,76,91,97,45,47,68,8,54,74,25,30,96,69,68,8,45,35,77,43,29,43,27,90,58,24,4,53,37,11,7,44,73,28,48,34,96,47,86,22,20,28,19,73,90,25,44,79,49,72,80,88,77,88,30,76,12,42,72,17,89,8,67,20,100,32,9,90,5,56,77,66,83,88,67,37,81,22,48,58,90"
dtnsim.node[12].app.destinationEid = "11,11,11,11,11,11,11,11,11,11,11,11,11,11,11,11,11,11,11,11,11,11,11,11,11,11,11,11,11,11,11,11,11,11,11,11,11,11,11,11,11,13,13,13,13,13,13,13,13,13,13,13,13,13,13,13,13,13,13,13,13,13,13,13,13,13,13,13,13,13,13,13,13,13,13,13,13,13,13,13,13,13,13,13,13,13,13,13,13,13,13,13,13,13,13,13,13,13,13,13"
dtnsim.node[12].app.size = "200,200,100,200,200,100,200,200,100,200,100,500,50,500,500,200,50,50,50,500,200,100,100,500,50,500,500,500,50,200,500,50,50,200,500,50,50,100,100,100,100,200,200,50,500,100,50,50,50,200,200,100,50,100,100,100,200,100,100,500,100,100,100,500,50,50,200,500,500,50,200,200,100,100,100,500,200,100,50,100,500,500,100,100,500,200,500,50,500,500,500,50,200,100,200,500,500,100,50,50"
# Node 13 random conversational traffic
dtnsim.node[13].app.enable = true
dtnsim.node[13].app.bundlesNumber = "2,5,4,5,5,3,2,1,1,2,2,3,3,4,5,3,1,2,1,5,5,5,4,1,2,1,3,3,4,5,5,4,4,4,4,1,3,4,3,4,2,4,3,5,3,5,3,2,2,2,4,2,3,2,5,2,5,3,3,2,5,3,3,5,3,3,4,1,3,2,5,2,3,1,5,2,1,4,1,2,1,4,5,1,2,1,2,3,2,5,3,2,2,3,1,4,3,2,3,1"
dtnsim.node[13].app.start = "37,97,63,34,14,17,46,78,29,55,49,23,31,27,75,97,80,82,82,16,78,22,94,74,100,34,15,58,78,68,97,46,50,68,96,13,22,20,70,18,98,20,66,9,7,80,74,18,88,79,13,68,49,58,44,87,63,27,16,32,66,89,3,9,36,12,42,83,97,30,34,92,51,74,33,80,3,6,86,97,61,31,1,17,44,32,20,45,45,22,15,81,24,26,30,84,81,6,91,49"
dtnsim.node[13].app.destinationEid = "12,12,12,12,12,12,12,12,12,12,12,12,12,12,12,12,12,12,12,12,12,12,12,12,12,12,12,12,12,12,12,12,12,12,14,14,14,14,14,14,14,14,14,14,14,14,14,14,14,14,14,14,14,14,14,14,14,14,14,14,14,14,14,14,14,14,14,14,14,14,14,14,14,14,14,14,14,14,14,14,14,14,14,14,14,14,14,14,14,14,14,14,14,14,14,14,14,14,14,14"
dtnsim.node[13].app.size = "50,500,500,50,50,200,100,200,500,100,100,50,100,500,50,200,500,100,200,50,50,100,500,200,500,200,500,200,50,100,100,50,200,500,100,200,200,200,500,500,500,200,200,200,100,100,200,200,50,500,100,100,500,100,500,100,100,100,200,200,100,50,500,100,50,100,200,100,500,200,500,500,100,100,500,200,100,500,500,50,200,50,500,500,500,200,500,50,500,500,500,100,200,500,500,500,50,200,50,50"
# Node 14 random conversational traffic
dtnsim.node[14].app.enable = true
dtnsim.node[14].app.bundlesNumber = "5,4,2,5,3,3,2,5,5,4,2,4,1,4,3,3,1,4,4,4,2,3,5,1,4,1,4,1,2,1,1,3,3,3,3,5,4,3,1,1,4,4,4,5,3,3,1,4,5,2,1,3,3,2,2,4,1,4,4,2,3,1,2,4,1,3,1,1,2,3,1,1,4,5,3,4,2,5,5,2,4,3,2,2,1,4,1,3,4,3,2,4,2,5,1,5,1,2,2,5"
dtnsim.node[14].app.start = "19,26,23,80,27,99,29,69,8,75,19,19,56,68,48,94,34,19,34,94,7,89,99,36,42,97,53,78,43,84,8,50,38,28,46,25,20,89,30,28,33,93,13,94,54,81,37,61,87,74,8,66,59,76,40,70,12,91,100,80,5,24,67,28,98,59,22,54,71,29,75,31,68,84,98,52,64,76,51,42,54,30,18,43,21,34,69,2,53,19,93,24,38,20,63,84,27,88,7,19"
dtnsim.node[14].app.destinationEid = "13,13,13,13,13,13,13,13,13,13,13,13,13,13,13,13,13,13,13,13,13,13,13,13,13,13,13,13,13,13,13,13,13,13,13,13,13,13,13,13,13,13,13,13,13,15,15,15,15,15,15,15,15,15,15,15,15,15,15,15,15,15,15,15,15,15,15,15,15,15,15,15,15,15,15,15,15,15,15,15,15,15,15,15,15,15,15,15,15,15,15,15,15,15,15,15,15,15,15,15"
dtnsim.node[14].app.size = "50,200,100,50,200,50,500,500,50,500,50,50,50,50,100,100,500,500,500,50,50,200,100,200,50,200,100,100,200,200,100,500,500,100,500,200,200,200,200,500,200,100,500,500,500,500,50,200,200,100,500,200,200,50,100,100,100,50,50,100,100,50,500,200,50,50,100,500,200,50,50,200,200,500,100,50,200,500,500,100,500,50,100,100,100,50,200,500,500,50,100,50,500,500,200,100,500,50,200,100"
# Node 15 random conversational traffic
dtnsim.node[15].app.enable = true
dtnsim.node[15].app.bundlesNumber = "4,1,2,5,1,4,3,5,2,3,4,3,2,5,4,4,2,2,5,5,3,1,5,5,4,4,2,4,1,4,3,1,2,1,2,1,2,3,3,1,2,4,4,3,4,1,5,1,2,5,4,5,5,5,5,2,1,3,1,1,5,2,2,1,1,3,4,2,2,2,5,1,4,3,1,4,3,2,4,3,5,4,4,4,4,5,2,1,5,5,5,1,3,2,5,1,5,1,1,4"
dtnsim.node[15].app.start = "83,69,97,10,61,80,43,14,100,82,8,28,73,35,23,79,31,34,78,92,100,53,82,60,32,30,11,29,94,29,43,93,92,12,22,27,76,48,68,65,49,51,79,8,88,38,77,16,49,61,2,30,91,49,44,8,85,15,68,67,71,29,68,80,25,7,19,100,61,97,89,78,81,50,26,24,78,91,34,3,7,93,76,13,83,2,85,31,87,90,16,60,78,68,17,13,40,59,62,12"
dtnsim.node[15].app.destinationEid = "14,14,14,14,14,14,14,14,14,14,14,14,14,14,14,14,14,14,14,14,14,14,14,14,14,14,14,14,14,14,14,14,14,14,14,16,16,16,16,16,16,16,16,16,16,16,16,16,16,16,16,16,16,16,16,16,16,16,16,16,16,16,16,16,16,16,16,16,16,16,16,16,16,16,16,16,16,16,16,16,16,16,16,16,16,16,16,16,16,16,16,16,16,16,16,16,16,16,16,16"
dtnsim.node[15].app.size = "200,50,100,200,50,100,100,200,500,100,200,500,500,50,500,200,100,50,500,200,100,50,200,100,50,100,50,100,200,500,50,500,50,500,100,500,500,50,500,500,100,200,500,200,100,200,500,100,500,50,500,200,50,200,200,100,500,50,50,100,500,500,100,100,50,50,500,50,100,100,50,50,500,500,100,50,100,500,500,500,500,50,500,100,200,100,500,50,100,100,200,500,200,500,50,200,100,500,100,100"
# Node 16 random conversational traffic
dtnsim.node[16].app.enable = true
dtnsim.node[16].app.bundlesNumber = "3,2,1,5,2,5,3,5,5,2,4,3,2,3,2,2,4,1,3,2,5,5,2,5,3,2,2,5,5,3,2,4,5,5,4,2,1,5,3,3,4,4,2,3,4,1,2,1,2,1,2,4,4,2,4,4,3,3,1,3,1,4,5,1,4,2,1,1,3,4,1,1,3,4,1,3,5,2,3,4,5,3,1,1,3,3,4,2,5,1,4,2,4,4,3,4,4,2,3,4"
dtnsim.node[16].app.start = "83,55,76,67,51,59,12,43,84,25,71,92,56,49,15,74,36,71,98,81,88,52,32,44,17,95,83,7,91,36,93,19,65,73,24,44,67,13,36,50,77,35,71,9,6,72,90,54,14,8,59,77,42,54,46,50,94,31,54,16,5,100,9,21,80,46,70,3,57,81,89,63,7,49,13,8,78,23,46,79,18,54,48,62,65,72,19,67,48,28,87,2,92,59,84,50,68,31,31,83"
dtnsim.node[16].app.destinationEid = "15,15,15,15,15,15,15,15,15,15,15,15,15,15,15,15,15,15,15,15,15,15,15,15,15,15,15,15,15,15,15,15,15,15,15,15,15,15,17,17,17,17,17,17,17,17,17,17,17,17,17,17,17,17,17,17,17,17,17,17,17,17,17,17,17,17,17,17,17,17,17,17,17,17,17,17,17,17,17,17,17,17,17,17,17,17,17,17,17,17,17,17,17,17,17,17,17,17,17,17"
dtnsim.node[16].app.size = "100,200,200,500,50,100,100,500,500,100,200,500,200,50,50,50,500,200,500,200,50,500,50,100,100,100,500,100,200,100,100,100,50,200,500,50,500,100,500,200,50,500,50,500,500,50,50,50,50,500,500,500,200,500,500,500,100,100,100,50,100,50,500,100,50,200,100,500,200,50,200,50,100,200,200,50,100,50,200,200,200,100,100,500,50,50,50,200,200,100,500,50,100,500,50,100,50,50,50,500"
# Node 17 random conversational traffic
dtnsim.node[17].app.enable = true
dtnsim.node[17].app.bundlesNumber = "4,2,2,5,4,2,5,1,5,3,4,1,5,3,2,1,1,2,3,4,5,2,3,5,3,5,2,2,2,2,1,1,1,1,5,4,3,4,2,4,4,2,3,3,1,1,5,3,3,1,5,4,2,1,1,3,1,1,5,3,2,2,4,1,1,5,4,2,3,2,1,1,2,1,2,1,1,2,5,1,2,1,1,4,5,2,5,1,4,4,5,3,3,3,1,3,1,1,4,1"
dtnsim.node[17].app.start = "39,85,39,74,18,9,80,55,68,80,52,50,59,96,57,14,100,11,52,59,90,52,19,82,27,19,58,75,82,71,56,29,97,5,88,36,87,26,90,1,96,52,20,28,79,9,91,83,59,74,63,93,47,71,42,79,21,46,83,35,54,96,74,39,14,87,51,60,82,2,20,27,67,73,59,71,98,61,47,50,11,58,21,91,40,16,51,46,35,9,13,26,29,26,13,60,19,24,49,6"
dtnsim.node[17].app.destinationEid = "16,16,16,16,16,16,16,16,16,16,16,16,16,16,16,16,16,16,16,16,16,16,16,16,16,16,16,16,16,16,16,16,16,16,16,16,16,18,18,18,18,18,18,18,18,18,18,18,18,18,18,18,18,18,18,18,18,18,18,18,18,18,18,18,18,18,18,18,18,18,18,18,18,18,18,18,18,18,18,18,18,18,18,18,18,18,18,18,18,18,18,18,18,18,18,18,18,18,18,18"
dtnsim.node[17].app.size = "50,50,50,100,50,100,500,100,50,50,50,50,100,500,50,50,500,50,100,100,200,50,100,100,50,100,500,500,200,50,100,200,100,200,200,50,500,500,50,50,50,100,50,50,200,500,50,500,50,100,500,100,500,200,100,200,200,200,50,200,100,200,100,500,100,50,200,50,500,50,500,200,500,50,200,100,100,500,50,50,500,50,100,200,50,500,50,100,500,200,100,50,500,500,200,50,50,500,500,100"
# Node 18 random conversational traffic
dtnsim.node[18].app.enable = true
dtnsim.node[18].app.bundlesNumber = "3,5,4,2,3,5,3,5,4,3,2,4,5,5,4,2,5,1,2,4,1,2,2,1,1,1,3,1,2,3,3,3,5,5,4,5,4,2,3,1,5,2,3,2,5,2,3,2,3,2,2,2,1,4,4,3,4,1,2,4,5,3,5,5,2,2,2,3,1,1,4,1,2,5,3,4,3,4,2,4,2,1,4,2,4,4,5,3,3,1,4,5,1,5,4,5,2,1,1,2"
dtnsim.node[18].app.start = "27,93,8,97,59,29,80,96,91,60,77,80,89,89,63,77,22,93,58,91,6,68,79,100,54,18,66,41,49,44,18,38,65,27,50,6,85,32,86,19,51,9,45,66,75,53,90,58,32,91,70,80,29,91,33,66,20,31,60,54,60,31,7,49,85,80,73,90,53,92,95,53,34,97,45,16,26,6,85,84,48,46,54,75,1,31,14,46,24,42,17,5,90,61,72,14,8,73,58,74"
dtnsim.node[18].app.destinationEid = "17,17,17,17,17,17,17,17,17,17,17,17,17,17,17,17,17,17,17,17,17,17,17,17,17,17,17,17,17,17,17,17,17,17,17,19,19,19,19,19,19,19,19,19,19,19,19,19,19,19,19,19,19,19,19,19,19,19,19,19,19,19,19,19,19,19,19,19,19,19,19,19,19,19,19,19,19,19,19,19,19,19,19,19,19,19,19,19,19,19,19,19,19,19,19,19,19,19,19,19"
dtnsim.node[18].app.size = "100,50,500,50,500,50,500,200,50,200,100,50,50,50,100,200,100,100,200,200,50,100,500,50,500,100,100,50,100,50,50,200,500,200,200,100,500,500,200,100,50,100,500,50,500,100,200,200,500,100,50,500,100,500,50,50,200,500,100,100,500,500,100,100,100,100,500,50,50,200,100,500,200,50,500,500,50,50,500,100,200,200,100,100,200,50,100,50,100,500,500,200,100,200,500,500,500,200,50,100"
# Node 19 random conversational traffic
dtnsim.node[19].app.enable = true
dtnsim.node[19].app.bundlesNumber = "3,2,5,4,3,3,3,4,3,1,4,2,1,2,1,3,1,3,5,3,2,1,4,5,4,1,5,3,2,5,5,3,3,2,5,3,4,1,1,1,3,4,1,2,2,1,4,2,2,4,2,4,4,2,3,1,1,2,3,4,3,3,2,5,1,4,5,5,5,2,1,4,2,1,5,3,5,5,5,4,1,1,3,1,3,5,5,2,4,3,4,5,3,5,1,3,1,3,1,3"
dtnsim.node[19].app.start = "14,38,94,28,54,67,66,34,73,90,35,96,39,74,25,58,68,41,8,51,92,78,92,57,98,30,85,54,54,57,81,9,32,49,34,25,12,92,69,75,16,12,78,61,79,6,4,92,33,48,79,53,15,60,28,71,46,100,36,69,95,21,45,1,90,22,92,34,92,35,14,97,25,36,64,74,43,45,76,68,19,89,73,49,20,8,12,90,58,44,10,37,41,54,37,90,80,19,87,2"
dtnsim.node[19].app.destinationEid = "18,18,18,18,18,18,18,18,18,18,18,18,18,18,18,18,18,18,18,18,18,18,18,18,18,18,18,18,18,18,18,18,18,18,18,18,18,18,18,18,18,18,18,18,18,20,20,20,20,20,20,20,20,20,20,20,20,20,20,20,20,20,20,20,20,20,20,20,20,20,20,20,20,20,20,20,20,20,20,20,20,20,20,20,20,20,20,20,20,20,20,20,20,20,20,20,20,20,20,20"
dtnsim.node[19].app.size = "200,100,50,100,200,500,50,200,500,100,200,100,500,50,100,500,100,200,100,100,500,50,50,50,50,100,100,100,500,500,500,50,500,100,100,200,500,50,100,100,200,100,100,200,200,500,100,100,100,500,500,500,500,500,50,500,100,500,500,50,50,100,500,50,50,500,500,200,500,100,200,200,200,500,500,50,200,100,200,100,50,100,100,100,500,50,50,100,200,200,200,200,50,100,500,200,100,500,50,500"
# Node 20 random conversational traffic
dtnsim.node[20].app.enable = true
dtnsim.node[20].app.bundlesNumber = "1,1,2,4,1,2,5,2,1,2,2,4,1,1,5,5,4,5,5,2,3,1,4,4,1,1,4,3,4,2,5,5,3,3,5,5,4,2,3,2,4,1,5,5,5,2,1,1,5,5,2,3,3,5,5,3,2,2,3,5,4,4,5,1,5,4,2,3,2,5,1,5,5,4,3,3,1,5,1,3,1,4,2,2,5,4,2,5,3,1,3,5,3,5,1,2,5,3,3,5"
dtnsim.node[20].app.start = "14,38,49,60,62,75,53,100,38,74,5,98,98,37,18,34,65,81,69,28,82,51,12,16,64,47,49,47,26,11,42,68,90,69,60,68,53,83,82,74,41,84,11,59,71,76,8,81,97,2,46,31,62,74,35,51,7,26,91,87,65,70,64,29,40,45,15,13,54,29,35,70,7,87,4,47,80,30,39,6,42,4,93,44,64,14,37,39,67,26,73,68,1,11,22,43,42,49,63,39"
dtnsim.node[20].app.destinationEid = "19,19,19,19,19,19,19,19,19,19,19,19,19,19,19,19,19,19,19,19,19,19,19,19,19,19,19,19,19,19,21,21,21,21,21,21,21,21,21,21,21,21,21,21,21,21,21,21,21,21,21,21,21,21,21,21,21,21,21,21,21,21,21,21,21,21,21,21,21,21,21,21,21,21,21,21,21,21,21,21,21,21,21,21,21,21,21,21,21,21,21,21,21,21,21,21,21,21,21,21"
dtnsim.node[20].app.size = "100,100,200,100,100,100,200,50,500,500,200,500,500,200,500,500,200,100,200,50,100,500,50,200,50,100,100,50,200,50,100,50,200,50,100,200,200,200,500,200,500,500,100,500,50,200,500,500,100,200,50,200,200,200,500,500,200,100,200,50,500,200,500,200,50,200,100,100,50,50,50,200,200,200,100,200,200,500,500,100,200,100,50,50,50,50,200,500,100,200,200,500,200,100,200,100,500,50,100,500"
# Node 21 random conversational traffic
dtnsim.node[21].app.enable = true
dtnsim.node[21].app.bundlesNumber = "5,2,2,2,1,3,1,1,4,4,5,2,4,1,4,2,4,3,3,1,3,4,3,3,3,5,1,2,3,5,3,1,5,3,4,2,1,4,3,2,3,2,4,2,5,3,5,2,4,4,4,2,4,1,5,3,1,5,4,2,2,4,2,4,2,4,1,5,1,2,5,1,4,2,1,2,3,1,4,4,3,2,3,1,5,2,4,3,1,4,1,3,2,4,4,5,2,5,4,5"
dtnsim.node[21].app.start = "47,79,62,80,45,87,21,62,81,13,91,100,4,54,36,68,80,43,28,93,73,34,43,18,14,61,30,37,9,89,10,87,32,43,50,6,49,68,18,38,48,82,76,3,30,44,15,100,79,16,78,85,85,1,88,23,78,5,100,5,92,28,63,18,61,100,87,54,72,70,79,95,27,10,20,89,48,21,7,72,57,78,79,97,3,79,66,38,95,19,16,66,30,82,99,77,50,91,6,61"
dtnsim.node[21].app.destinationEid = "20,20,20,20,20,20,20,20,20,20,20,20,20,20,20,20,20,20,20,20,20,20,20,20,20,20,20,20,20,20,20,20,20,20,20,20,20,20,20,20,20,20,20,20,20,20,22,22,22,22,22,22,22,22,22,22,22,22,22,22,22,22,22,22,22,22,22,22,22,22,22,22,22,22,22,22,22,22,22,22,22,22,22,22,22,22,22,22,22,22,22,22,22,22,22,22,22,22,22,22"
dtnsim.node[21].app.size = "100,50,200,200,200,100,200,50,200,500,50,500,50,200,200,500,200,200,200,100,50,200,100,500,100,500,200,200,500,500,200,200,100,50,50,500,50,50,200,50,100,200,50,100,500,100,50,50,200,100,100,50,200,50,500,50,100,50,500,100,500,200,500,50,50,200,50,100,100,50,200,50,100,100,50,100,50,50,50,50,100,100,500,50,50,500,100,50,100,50,100,500,500,50,500,50,100,500,100,200"
# Node 22 random conversational traffic
dtnsim.node[22].app.enable = true
dtnsim.node[22].app.bundlesNumber = "1,4,4,2,2,4,2,3,4,3,3,1,2,4,1,3,1,5,5,2,1,3,4,3,4,2,3,3,4,2,2,1,3,4,5,4,1,5,5,3,1,2,4,3,4,3,2,1,1,4,1,3,4,4,2,5,4,4,1,5,4,4,4,4,3,4,1,5,2,1,4,3,1,2,5,2,3,4,5,3,5,5,1,1,5,3,1,2,3,3,2,4,5,4,5,5,1,5,2,4"
dtnsim.node[22].app.start = "22,80,4,92,9,99,64,21,75,71,89,98,56,24,17,64,80,72,97,25,68,35,60,100,69,34,8,59,84,82,59,22,86,98,26,20,44,29,27,34,47,97,29,72,80,96,92,80,87,73,81,17,5,92,13,25,1,97,71,19,28,3,39,10,40,93,70,51,10,54,85,90,26,81,14,47,100,76,80,51,18,30,3,49,40,13,34,30,41,16,46,20,14,78,42,20,87,41,30,14"
dtnsim.node[22].app.destinationEid = "21,21,21,21,21,21,21,21,21,21,21,21,21,21,21,21,21,21,21,21,21,21,21,21,21,23,23,23,23,23,23,23,23,23,23,23,23,23,23,23,23,23,23,23,23,23,23,23,23,23,23,23,23,23,23,23,23,23,23,23,23,23,23,23,23,23,23,23,23,23,23,23,23,23,23,23,23,23,23,23,23,23,23,23,23,23,23,23,23,23,23,23,23,23,23,23,23,23,23,23"