[General]
network = src.dtnsim										
repeat = 1
allow-object-stealing-on-deletion = true

# Simulation end time
sim-time-limit = 84600s

# Nodes quantity (identifiers (EiDs) matches their index, EiD=0 is ignored)			
dtnsim.nodesNumber = 120
dtnsim.node[*].icon = "satellite"

# Nodes's failure rates
dtnsim.node[*].fault.enable = true
dtnsim.node[*].fault.meanTTF = 190s
dtnsim.node[*].fault.meanTTR = 10s

# Mobility
dtnsim.node[*].hasMobility = true
dtnsim.node[*].norad.satIndex = parentIndex()
dtnsim.node[*].norad.satName = "sat"
**.updateInterval = 20s
**.numOfSats = 120
**.satPerPlane = 10
**.altitude = 540
**.planes = 12
**.phaseOffset = 7

dtnsim.node[*].dtn.routing = "antop"
dtnsim.node[*].dtn.printRoutingDebug = true

# --- Random Traffic Configuration ---
# Node 1 random traffic
dtnsim.node[1].app.enable = true
dtnsim.node[1].app.bundlesNumber = "9,1,3,13,45,40,2,2,4,31,21,15,47,5,1,25,38,18,21,48,1,41,2,8,17,18,15,36,4,45,37,4,40,29,40,40,12,19,41,47,33,39,26,20,30,43,27,20,13,44,37,2,19,44,9,24,16,22,12,16,15,44,23,1,31,25,19,42,24,32,18,17,6,15,17,15,42,17,30,24,12,12,13,15,49,22,6,5,15,18,18,4,11,23,1,27,3,34,30,42"
dtnsim.node[1].app.start = "60,22,47,89,67,35,98,23,78,16,100,38,53,7,4,78,23,24,74,94,23,71,53,18,21,11,71,39,88,49,12,18,66,83,47,58,28,19,98,67,27,77,45,93,71,19,37,27,87,43,30,84,87,56,55,42,97,27,37,66,73,69,96,74,92,54,74,50,99,38,12,33,90,32,6,32,42,68,23,99,12,18,69,65,87,3,8,23,62,65,61,29,66,23,85,66,34,3,10,98"
dtnsim.node[1].app.destinationEid = "30,14,30,9,56,40,22,25,27,43,87,91,79,21,40,6,16,21,61,35,61,8,13,88,66,69,17,53,69,113,21,67,32,40,107,94,39,97,13,117,61,72,53,71,50,45,53,54,23,115,61,32,52,10,11,42,102,49,32,103,58,33,71,56,41,30,26,107,93,19,116,20,76,83,20,82,109,41,9,99,87,23,70,10,59,6,111,107,65,8,18,36,55,24,112,91,84,109,99,96"
dtnsim.node[1].app.size = "500,50,100,200,50,50,50,100,100,200,500,200,200,200,500,200,200,200,50,100,50,50,500,500,500,50,200,200,200,500,50,200,200,100,50,500,200,50,50,500,200,500,500,200,500,200,100,500,200,50,500,50,100,100,100,50,100,500,100,200,500,500,100,100,500,50,200,100,500,50,50,50,100,200,200,50,100,200,500,100,50,50,200,500,500,50,200,100,50,100,50,500,100,500,200,100,500,100,50,200"
        # Node 2 random traffic
dtnsim.node[2].app.enable = true
dtnsim.node[2].app.bundlesNumber = "45,26,2,14,38,6,23,41,25,21,6,7,15,31,6,42,48,35,18,28,34,12,40,26,20,18,42,9,27,31,29,21,45,36,16,46,24,17,29,49,1,24,36,32,45,8,49,46,12,23,40,12,20,44,38,12,4,31,7,11,11,2,3,29,35,12,24,20,10,19,6,35,13,27,27,13,2,15,18,4,25,49,46,21,39,31,34,17,25,1,35,34,8,34,29,41,9,35,19,45"
dtnsim.node[2].app.start = "4,30,68,99,4,86,56,22,44,18,52,21,35,86,63,92,94,42,39,94,32,43,97,62,46,13,77,99,72,38,12,28,9,46,12,64,40,33,76,84,23,96,26,10,85,87,78,4,88,53,36,63,90,44,26,65,46,12,41,73,87,69,48,90,40,39,3,12,2,16,75,47,99,48,67,36,5,2,87,52,11,75,49,96,31,44,78,76,26,32,76,37,65,18,72,71,68,49,80,92"
dtnsim.node[2].app.destinationEid = "112,64,30,18,108,61,35,97,91,28,103,37,111,12,48,50,74,107,74,17,44,17,89,104,106,5,103,42,39,36,85,63,71,33,33,38,46,63,68,38,116,83,52,68,31,54,57,7,111,27,23,20,8,93,68,81,43,83,45,83,24,5,81,14,120,106,66,1,88,1,29,63,74,101,112,27,56,54,5,44,90,71,80,47,98,60,86,22,97,53,107,45,90,35,117,81,48,68,99,64"
dtnsim.node[2].app.size = "200,50,100,200,500,100,200,500,200,50,50,50,200,100,200,200,200,50,50,50,200,100,200,200,50,200,50,50,100,500,200,50,500,200,50,200,100,500,50,200,50,50,200,50,200,500,500,50,200,50,100,100,500,500,200,200,500,100,50,500,50,500,50,500,500,100,50,200,100,50,200,200,50,50,50,200,50,100,50,50,100,200,200,100,50,100,200,50,200,500,500,100,500,200,200,50,50,100,500,500"
        # Node 3 random traffic
dtnsim.node[3].app.enable = true
dtnsim.node[3].app.bundlesNumber = "33,30,30,6,25,8,49,1,47,41,5,19,33,34,6,22,35,9,36,44,34,35,4,41,25,43,46,39,22,32,19,42,1,6,10,16,22,32,37,7,1,22,16,27,20,9,41,17,13,48,15,34,16,37,12,3,12,3,5,40,24,25,21,32,24,25,46,14,29,27,45,6,17,28,8,50,5,12,47,4,15,13,36,41,48,6,50,7,40,45,33,19,37,8,16,10,23,43,20,17"
dtnsim.node[3].app.start = "32,55,44,9,27,78,8,33,21,97,100,27,30,51,82,71,35,90,13,33,9,18,39,81,11,45,30,16,45,86,39,36,85,27,89,24,41,17,5,46,37,15,61,83,14,80,86,85,38,35,46,44,52,71,89,64,89,61,87,82,4,13,85,43,55,17,27,44,4,25,82,97,34,27,84,46,75,63,14,66,65,6,33,49,93,93,13,57,38,74,25,31,81,34,77,78,43,58,49,18"
dtnsim.node[3].app.destinationEid = "15,32,92,49,89,99,25,71,72,49,35,71,41,112,53,31,46,100,97,82,6,92,79,48,104,23,65,32,63,61,100,28,104,42,53,26,83,111,29,90,16,29,29,116,43,34,70,5,28,8,116,92,8,4,113,35,10,28,4,108,26,67,55,1,54,114,78,35,27,118,40,117,8,110,68,88,25,107,106,5,71,6,96,107,68,115,99,101,78,106,6,94,116,14,45,110,104,51,83,87"
dtnsim.node[3].app.size = "50,50,500,50,500,200,500,200,500,500,200,200,100,500,500,500,100,500,500,500,50,200,100,100,500,100,100,50,200,50,50,200,200,500,50,500,500,500,50,500,50,100,50,50,500,500,200,500,500,500,50,100,500,100,100,200,50,50,50,200,50,100,200,500,50,100,200,50,500,100,50,100,100,100,100,100,200,500,100,100,100,200,50,500,100,100,100,200,200,200,50,100,50,500,50,50,100,100,500,50"
        # Node 4 random traffic
dtnsim.node[4].app.enable = true
dtnsim.node[4].app.bundlesNumber = "28,19,24,25,29,20,22,23,42,22,34,44,28,41,4,5,42,45,4,38,50,2,38,12,26,13,44,21,7,50,14,10,38,40,2,27,21,47,14,12,38,21,25,1,38,28,8,4,17,23,5,10,7,37,35,8,6,28,36,5,11,26,19,24,29,8,50,43,13,39,37,35,29,11,22,21,30,33,5,13,4,11,15,14,11,48,28,12,38,39,23,41,26,47,30,21,34,19,36,15"
dtnsim.node[4].app.start = "100,77,20,9,7,2,22,65,22,28,96,93,67,69,21,12,65,80,50,59,9,14,84,40,31,80,58,75,42,58,31,28,93,53,35,56,36,38,92,30,89,79,53,66,39,25,97,61,57,63,62,21,60,27,84,85,45,96,5,32,9,58,80,62,21,5,8,95,9,16,44,98,34,20,60,86,62,25,72,12,52,53,28,50,90,70,27,83,47,71,42,42,11,18,35,4,42,93,43,65"
dtnsim.node[4].app.destinationEid = "104,94,27,28,34,111,53,93,25,112,73,114,51,12,98,30,19,7,109,64,35,67,56,42,11,37,119,26,108,33,58,22,92,30,43,60,5,69,92,27,39,91,84,79,68,115,61,60,21,59,42,95,100,38,12,45,38,47,78,80,97,24,90,116,100,115,87,44,21,29,104,105,62,107,10,107,51,70,83,56,118,33,40,71,74,8,81,63,15,62,47,97,21,38,9,112,16,116,78,72"
dtnsim.node[4].app.size = "200,200,500,200,200,500,500,100,50,50,100,50,50,50,100,500,50,200,200,200,100,500,50,50,200,100,100,100,200,500,200,500,200,200,500,50,100,100,200,500,500,100,100,500,200,50,500,200,100,100,200,500,200,200,50,100,100,100,100,100,200,200,500,200,200,200,500,50,50,50,500,200,500,100,500,500,500,500,500,100,200,50,50,50,200,50,200,500,500,500,50,500,100,50,500,50,500,200,200,100"
        # Node 5 random traffic
dtnsim.node[5].app.enable = true
dtnsim.node[5].app.bundlesNumber = "8,32,22,8,37,6,21,19,2,9,38,11,26,24,6,49,12,28,25,10,11,32,23,24,14,41,16,1,38,21,40,46,27,38,37,30,34,31,27,48,4,21,13,46,14,8,4,36,9,39,41,45,47,20,30,15,18,6,17,24,2,22,25,14,48,13,26,50,16,42,31,43,11,50,9,30,30,37,42,36,7,44,48,16,34,44,41,49,34,18,28,47,31,18,41,38,4,44,26,13"
dtnsim.node[5].app.start = "50,64,54,23,4,83,27,76,46,61,60,52,91,9,73,46,40,74,89,86,67,81,45,38,23,9,36,43,68,100,21,46,85,7,97,98,52,32,89,68,80,39,85,70,26,2,67,21,31,17,95,56,35,92,5,88,78,86,8,16,25,43,76,87,92,29,53,79,52,92,86,22,94,63,78,15,14,81,49,28,21,26,55,41,61,30,21,1,37,56,68,29,91,63,11,8,56,69,47,67"
dtnsim.node[5].app.destinationEid = "23,107,51,12,83,39,10,94,114,85,24,66,37,48,96,98,45,62,41,37,19,101,76,34,60,71,3,95,40,43,55,107,56,15,75,42,20,68,35,104,96,4,10,29,3,6,74,38,22,94,16,2,4,33,101,96,96,105,32,2,78,49,36,62,19,102,9,43,109,112,16,41,86,11,32,31,110,72,95,56,41,56,59,67,89,105,88,119,46,26,74,91,3,14,25,51,114,100,14,82"
dtnsim.node[5].app.size = "100,500,500,500,50,500,50,500,200,200,500,50,50,500,50,50,50,100,500,50,100,500,100,200,100,100,50,100,500,200,50,100,100,50,200,100,200,100,50,100,100,200,500,50,100,200,100,100,100,100,50,500,50,100,200,200,200,200,100,100,50,500,50,500,500,500,100,200,50,100,200,200,50,100,100,100,50,200,200,50,500,500,500,50,500,50,50,500,200,200,50,500,500,50,100,200,200,200,500,500"
        # Node 6 random traffic
dtnsim.node[6].app.enable = true
dtnsim.node[6].app.bundlesNumber = "26,16,21,12,31,44,1,4,18,13,5,49,14,19,50,14,42,16,13,39,19,7,10,45,37,17,7,19,25,34,34,6,24,30,40,19,27,5,43,17,4,17,31,20,9,27,16,18,1,13,4,15,36,35,27,2,37,48,35,13,32,2,13,39,45,6,8,16,47,45,45,10,10,39,7,26,47,38,32,5,35,9,30,44,45,48,20,8,45,45,10,17,43,10,43,36,43,3,15,18"
dtnsim.node[6].app.start = "94,77,41,2,52,31,54,60,60,6,84,97,17,35,51,93,45,73,58,46,47,16,58,82,28,71,10,11,65,85,19,33,3,73,18,43,58,16,22,73,94,86,57,60,50,61,71,6,4,38,5,16,52,22,8,23,6,71,31,26,9,38,14,42,89,8,19,67,18,53,36,8,55,31,99,47,66,16,37,89,99,22,50,59,56,56,5,67,93,18,14,99,30,84,2,54,16,65,57,53"
dtnsim.node[6].app.destinationEid = "60,25,98,55,95,60,37,40,100,108,56,46,97,40,68,119,109,102,66,72,112,98,17,57,28,25,56,118,44,1,4,46,72,59,7,94,43,51,88,111,68,42,108,81,82,82,42,105,29,82,34,26,72,81,55,113,99,119,71,109,120,94,66,119,103,97,48,48,115,48,120,23,88,39,19,116,75,47,51,49,45,59,65,48,91,31,108,28,42,4,14,89,25,100,4,37,65,117,70,12"
dtnsim.node[6].app.size = "50,200,50,50,500,500,100,500,200,200,500,200,200,200,500,200,100,200,200,100,50,200,200,100,500,500,50,50,500,100,100,500,100,100,200,200,200,200,200,500,100,100,50,500,100,200,50,500,100,500,500,500,500,200,100,50,50,200,500,500,50,200,50,50,200,100,50,50,100,200,200,100,200,50,50,200,500,500,500,100,100,200,50,100,100,100,500,200,50,50,100,200,500,500,200,200,50,100,50,100"
        # Node 7 random traffic
dtnsim.node[7].app.enable = true
dtnsim.node[7].app.bundlesNumber = "18,8,36,35,36,5,44,36,26,25,8,10,22,13,25,45,37,31,31,13,45,20,13,25,50,40,15,5,47,14,3,3,21,24,15,40,40,24,25,2,50,2,8,10,9,17,18,41,3,21,43,42,4,23,41,40,16,6,3,24,6,27,39,8,21,3,21,23,23,47,8,6,35,21,15,11,39,17,32,43,1,18,6,8,2,17,43,32,40,10,4,36,4,46,2,1,7,28,14,34"
dtnsim.node[7].app.start = "53,43,38,23,18,57,55,53,83,20,31,13,63,44,43,1,23,79,24,3,82,17,41,74,94,45,35,28,65,62,64,12,17,62,7,20,68,88,26,77,1,21,5,69,26,9,44,29,68,47,8,68,74,47,91,96,90,82,95,9,53,21,85,100,57,34,88,66,40,93,3,32,25,10,41,17,63,37,72,53,87,62,82,15,68,95,27,11,27,57,30,89,99,9,97,50,84,58,2,1"
dtnsim.node[7].app.destinationEid = "55,36,116,55,52,81,20,19,47,1,97,49,66,46,40,76,75,105,81,118,42,86,61,2,4,46,31,55,46,32,40,5,41,107,62,20,68,38,87,41,74,61,42,69,56,63,34,71,90,113,48,41,61,35,1,106,74,120,119,26,78,117,53,113,115,74,109,57,88,68,118,63,79,61,38,26,60,118,16,10,57,13,10,55,67,85,109,33,5,111,58,97,42,113,82,4,114,96,87,38"
dtnsim.node[7].app.size = "500,100,50,100,200,200,100,50,50,50,50,500,500,100,200,500,200,50,100,50,500,100,500,50,100,200,50,500,200,500,50,500,100,500,100,200,100,500,200,50,50,100,200,50,100,100,100,100,500,100,100,500,500,50,200,100,200,100,500,50,50,500,50,50,200,500,500,200,500,50,50,50,50,50,100,100,500,100,100,500,200,50,500,100,50,500,500,200,200,100,500,200,50,200,50,200,200,50,200,200"
        # Node 8 random traffic
dtnsim.node[8].app.enable = true
dtnsim.node[8].app.bundlesNumber = "22,34,11,21,18,45,37,34,37,9,35,1,13,9,23,15,39,25,47,5,44,6,31,13,19,30,16,2,13,23,13,4,50,6,25,3,27,32,40,47,15,15,13,48,24,20,6,18,48,36,37,26,48,5,16,16,36,24,16,46,46,13,10,32,6,42,22,40,12,7,19,46,29,21,25,3,8,46,18,21,32,8,1,34,12,14,32,6,37,6,24,3,28,42,47,44,5,41,24,49"
dtnsim.node[8].app.start = "77,70,35,98,3,86,9,83,49,97,26,39,90,100,60,31,44,85,13,59,71,36,48,2,61,32,40,38,27,60,4,67,23,55,2,91,25,68,41,15,24,10,3,28,84,48,3,54,3,89,2,18,42,23,57,5,27,30,47,38,12,2,93,76,66,95,32,47,94,94,69,94,100,7,92,2,100,43,41,50,71,77,4,45,84,1,47,22,59,76,66,72,53,29,26,9,45,88,57,17"
dtnsim.node[8].app.destinationEid = "15,73,89,114,110,20,33,120,19,63,12,65,31,14,47,12,71,48,44,113,43,92,45,33,22,68,33,27,22,53,12,13,6,86,100,36,53,55,4,32,26,35,51,95,47,36,6,115,34,12,49,87,50,54,68,34,86,27,14,33,43,5,35,87,120,100,119,90,93,47,32,37,56,7,38,86,14,72,16,27,52,112,54,29,61,111,98,44,40,73,57,115,30,78,75,51,74,44,18,88"
dtnsim.node[8].app.size = "500,50,50,500,100,500,200,50,200,500,50,500,200,50,200,100,100,100,50,50,100,200,500,200,50,200,50,200,500,100,200,200,500,100,200,50,500,200,50,500,100,50,100,100,500,100,500,500,50,50,500,50,50,500,200,200,50,500,500,500,100,200,500,50,500,50,200,500,100,200,50,500,500,200,500,500,50,50,200,500,100,500,100,100,200,100,50,500,500,500,200,100,100,50,500,500,100,200,200,100"
        # Node 9 random traffic
dtnsim.node[9].app.enable = true
dtnsim.node[9].app.bundlesNumber = "3,17,1,7,31,8,25,3,36,27,8,34,33,17,9,41,39,48,30,35,42,2,33,47,14,38,39,2,28,17,8,14,47,7,20,1,10,11,40,14,47,31,37,1,22,44,42,48,22,17,14,7,45,17,13,25,33,44,45,25,22,16,12,37,26,11,36,8,5,26,4,33,19,49,31,29,45,43,9,28,17,36,12,46,12,40,37,32,26,14,34,21,21,10,23,1,37,32,31,42"
dtnsim.node[9].app.start = "74,80,17,89,72,18,24,32,62,17,37,75,83,10,4,90,19,74,80,12,26,80,48,99,60,18,22,5,65,83,58,80,77,71,83,70,61,20,27,86,45,74,32,87,77,54,47,24,71,24,41,67,3,67,61,50,94,46,13,1,89,9,53,57,82,50,36,68,56,96,5,73,75,85,79,32,3,69,81,46,96,2,85,6,19,49,73,98,34,22,66,40,58,97,47,70,89,30,76,23"
dtnsim.node[9].app.destinationEid = "117,23,41,7,30,1,94,96,50,61,36,17,78,2,51,50,64,59,53,73,4,77,5,106,51,71,34,5,31,93,101,57,46,104,118,31,50,64,108,115,114,24,48,57,95,45,107,78,71,54,8,49,32,120,75,93,84,78,68,118,38,35,56,113,98,93,57,84,57,74,21,22,92,120,46,18,65,51,101,42,68,4,38,90,93,46,113,106,61,79,87,26,27,116,48,72,10,80,94,63"
dtnsim.node[9].app.size = "50,100,50,500,200,100,200,100,200,50,200,50,50,100,50,100,50,100,50,500,200,500,50,100,500,500,100,100,100,100,500,200,500,50,100,200,200,50,100,100,50,500,500,50,500,50,100,50,500,100,500,100,100,100,100,100,200,100,500,200,200,200,200,100,100,100,500,200,50,200,100,200,100,100,200,100,100,100,50,200,500,50,50,100,50,200,100,50,500,200,100,500,200,500,50,100,200,200,50,500"
        # Node 10 random traffic
dtnsim.node[10].app.enable = true
dtnsim.node[10].app.bundlesNumber = "47,5,7,36,44,32,21,15,32,31,25,17,12,38,3,49,4,24,17,44,2,46,5,38,23,24,28,19,9,41,16,7,13,3,22,3,26,22,35,23,14,24,12,48,48,35,28,44,8,44,15,43,32,9,43,15,36,28,25,1,10,40,21,35,16,18,45,45,9,12,27,38,40,31,25,44,40,4,4,13,31,19,45,35,45,48,40,26,22,1,13,33,19,39,49,49,30,13,4,22"
dtnsim.node[10].app.start = "71,3,21,33,65,24,7,29,69,60,72,39,63,22,91,32,18,48,94,88,56,58,65,69,34,57,3,14,13,18,42,7,35,4,31,81,37,40,31,49,37,100,88,7,12,88,25,60,87,100,99,32,21,32,1,52,9,43,58,89,28,5,93,74,34,100,98,98,79,30,4,2,20,72,87,53,14,46,33,58,76,29,53,49,19,92,71,58,70,79,39,13,87,18,97,92,37,28,100,27"
dtnsim.node[10].app.destinationEid = "2,85,50,87,41,32,20,55,117,82,2,8,117,68,57,105,101,69,45,104,51,50,37,28,82,7,119,118,103,18,76,107,46,81,54,73,9,76,81,94,118,40,25,101,29,116,53,77,109,116,54,93,100,70,30,113,63,105,47,109,77,97,74,4,41,54,82,70,20,1,76,34,73,35,116,33,44,89,102,31,5,32,85,64,8,93,2,26,66,32,105,109,75,76,88,62,109,118,40,62"
dtnsim.node[10].app.size = "200,500,100,50,500,100,100,100,50,200,100,100,50,100,500,50,500,50,500,100,200,500,50,50,500,200,500,200,50,100,100,100,500,500,50,100,50,500,50,50,50,200,200,500,200,100,500,500,50,100,50,100,200,50,100,100,50,100,100,100,50,100,500,200,500,50,100,50,200,500,50,50,500,100,100,200,100,500,500,100,500,100,500,50,200,100,500,50,500,500,50,200,500,500,200,50,100,200,500,100"
        # Node 11 random traffic
dtnsim.node[11].app.enable = true
dtnsim.node[11].app.bundlesNumber = "49,34,9,29,42,34,10,39,49,18,39,6,2,46,27,24,49,33,20,19,13,5,19,40,43,32,4,8,29,26,30,16,7,6,10,35,18,30,8,49,12,22,43,39,11,23,35,7,24,5,40,44,34,42,26,10,20,22,10,10,35,24,33,33,7,41,4,35,13,24,45,27,32,7,45,12,4,26,11,4,42,37,48,7,38,19,44,4,10,20,19,46,46,20,33,3,47,41,46,38"
dtnsim.node[11].app.start = "28,36,40,3,74,8,54,79,76,52,56,50,63,38,96,73,67,27,98,41,12,25,83,6,50,75,70,54,43,54,10,42,73,44,4,12,23,76,59,31,22,22,65,26,56,91,84,54,35,56,44,59,32,4,26,91,18,95,30,77,58,71,18,13,9,35,63,84,98,66,87,91,23,31,58,20,95,66,24,16,34,21,11,96,81,1,33,42,34,32,93,8,11,54,48,47,99,71,30,58"
dtnsim.node[11].app.destinationEid = "68,120,17,13,59,37,17,74,1,75,88,105,107,74,2,40,82,39,44,108,114,6,64,62,54,78,9,118,66,109,61,90,29,56,64,30,2,80,79,79,43,29,5,113,102,81,7,94,79,102,74,49,85,99,80,38,55,85,48,104,109,9,43,91,32,13,50,79,71,62,81,81,1,75,77,98,88,64,102,48,105,51,79,49,18,9,12,4,36,41,2,77,92,15,24,98,53,83,55,107"
dtnsim.node[11].app.size = "50,50,100,50,500,500,50,100,500,500,500,50,50,50,100,50,200,50,50,200,200,50,50,100,200,200,200,100,100,100,200,500,500,200,200,100,100,100,50,200,200,500,50,500,500,500,100,50,50,50,200,100,200,50,200,200,200,200,50,200,50,500,50,500,200,50,100,200,50,50,200,200,50,500,200,200,200,100,500,50,50,200,100,50,50,50,500,500,500,100,50,200,100,500,100,500,200,500,200,500"
        # Node 12 random traffic
dtnsim.node[12].app.enable = true
dtnsim.node[12].app.bundlesNumber = "43,5,17,24,11,38,26,42,4,18,46,45,10,22,8,32,30,4,50,26,38,48,1,35,34,42,37,25,27,14,32,10,37,26,2,29,12,17,1,44,21,50,40,7,49,23,22,30,15,38,34,36,12,47,21,44,40,46,24,31,49,23,23,27,14,37,50,28,23,16,38,29,15,11,39,46,9,17,37,8,25,28,50,15,40,4,34,17,40,21,8,42,3,47,47,14,3,28,20,19"
dtnsim.node[12].app.start = "63,77,3,16,4,40,87,50,32,87,82,75,94,69,42,10,31,93,91,88,1,41,59,76,64,75,60,35,83,95,19,23,16,3,8,78,59,21,83,50,24,68,98,90,53,69,36,97,64,51,79,50,66,55,94,51,23,98,90,76,18,74,33,36,4,50,60,94,98,69,45,20,84,39,65,95,60,65,32,29,64,88,47,98,91,43,86,40,33,78,13,1,26,3,25,40,72,53,11,50"
dtnsim.node[12].app.destinationEid = "96,1,76,75,60,15,17,117,60,70,113,83,94,39,26,108,29,99,73,17,23,51,52,96,112,8,74,22,70,16,85,7,114,50,76,68,111,71,66,89,90,46,81,87,85,92,15,29,110,36,97,6,100,116,78,3,88,18,71,68,45,10,52,73,83,38,98,34,38,66,37,99,3,76,108,39,60,17,66,15,83,20,28,29,102,95,46,63,96,3,44,81,49,40,37,5,113,5,35,8"
dtnsim.node[12].app.size = "500,50,500,200,100,500,200,50,50,100,100,500,500,100,100,200,200,200,100,200,500,200,100,500,200,200,50,50,500,50,200,50,200,100,200,200,100,200,200,200,200,100,200,100,200,50,50,100,200,200,200,200,500,500,100,500,50,100,100,200,50,100,200,100,500,50,200,100,50,100,100,50,200,200,200,500,200,200,100,50,200,100,200,500,50,200,50,50,200,50,100,50,100,200,500,100,500,100,100,200"
        # Node 13 random traffic
dtnsim.node[13].app.enable = true
dtnsim.node[13].app.bundlesNumber = "4,45,32,25,29,45,39,46,18,31,2,43,44,15,15,15,23,3,9,11,1,48,48,29,27,43,21,29,39,44,46,50,45,18,11,11,14,32,38,9,14,18,46,41,32,47,5,32,28,24,17,18,39,26,22,10,18,32,44,23,3,42,19,18,16,46,15,37,23,34,14,26,20,47,45,23,17,23,9,17,27,33,34,45,24,41,32,41,24,44,18,21,40,17,34,27,16,24,6,16"
dtnsim.node[13].app.start = "81,98,30,27,52,30,38,83,20,96,55,41,3,14,50,7,8,50,20,17,68,7,95,91,11,14,25,5,76,96,43,39,32,7,99,57,73,71,40,50,23,88,76,20,42,64,98,43,37,76,36,85,10,15,68,38,41,22,74,3,62,55,90,49,86,87,84,76,89,24,37,24,82,84,83,68,35,83,49,24,7,49,41,16,89,58,67,21,49,60,29,32,37,3,79,41,42,94,62,92"
dtnsim.node[13].app.destinationEid = "70,76,17,100,97,69,59,46,2,41,82,8,103,103,51,39,42,114,37,62,61,91,105,74,96,92,48,42,95,62,42,112,4,115,62,11,93,26,22,6,16,73,78,23,19,119,120,17,68,29,35,24,69,113,16,64,35,65,117,36,10,60,26,64,92,24,113,101,56,18,8,25,53,66,72,74,54,84,19,36,101,120,96,83,2,14,26,36,114,44,32,67,83,91,100,32,58,17,117,61"
dtnsim.node[13].app.size = "200,50,100,50,200,50,50,500,500,100,500,200,50,50,200,100,50,100,50,50,500,100,200,500,500,100,200,500,200,100,200,200,500,50,200,50,200,500,500,500,100,500,200,50,50,200,200,100,500,500,50,200,100,200,100,500,100,200,500,50,100,100,200,50,100,50,100,50,200,200,200,100,200,500,200,200,100,500,500,100,200,200,50,50,500,100,500,50,500,500,50,100,50,200,500,100,50,200,50,100"
        # Node 14 random traffic
dtnsim.node[14].app.enable = true
dtnsim.node[14].app.bundlesNumber = "50,7,29,46,37,10,39,30,14,33,2,5,26,40,49,36,18,30,21,31,25,33,28,16,36,23,43,32,40,18,31,5,18,20,22,43,7,31,19,41,30,48,15,43,33,49,6,3,46,13,4,4,35,37,7,45,39,44,14,47,16,16,38,12,7,29,31,37,27,4,33,19,44,27,15,21,19,25,29,18,9,3,16,5,14,40,40,15,39,4,12,29,21,50,37,5,10,35,35,8"
dtnsim.node[14].app.start = "25,68,60,10,58,50,90,98,19,2,52,74,70,51,25,44,42,23,4,57,5,27,6,25,14,6,50,37,94,99,65,11,63,27,49,72,44,77,84,36,55,54,51,88,47,79,59,82,3,100,5,60,59,11,77,2,27,43,47,7,56,6,5,79,43,53,31,2,83,16,49,20,8,1,49,21,34,13,91,13,39,76,90,47,32,78,87,21,64,16,83,84,37,48,63,96,100,1,31,43"
dtnsim.node[14].app.destinationEid = "48,10,113,62,48,113,6,26,114,61,11,6,64,10,119,6,56,91,99,117,82,90,12,46,8,109,114,77,120,76,51,107,24,72,80,23,99,97,8,59,119,61,13,75,118,82,45,50,104,48,24,30,87,110,41,3,92,61,12,41,108,48,19,67,23,44,55,103,20,2,77,77,115,112,74,58,101,62,27,118,101,12,50,118,80,100,67,68,60,87,98,67,23,83,53,42,49,2,92,42"
dtnsim.node[14].app.size = "50,50,500,100,100,200,100,100,200,500,200,50,50,200,50,200,100,500,500,100,500,200,50,500,100,200,100,50,500,50,500,50,100,50,500,50,50,500,200,100,200,100,100,100,500,100,500,200,100,100,500,100,500,50,200,50,100,200,500,200,100,500,50,100,100,50,50,100,50,100,500,50,50,500,500,200,500,200,100,50,500,200,200,500,100,500,500,200,500,500,100,100,200,50,50,50,50,100,500,100"
        # Node 15 random traffic
dtnsim.node[15].app.enable = true
dtnsim.node[15].app.bundlesNumber = "45,28,13,19,41,18,27,2,10,16,2,25,30,9,41,28,26,19,14,2,20,41,33,45,45,49,28,40,5,37,49,23,31,44,18,22,36,41,27,13,20,19,40,31,20,23,5,25,22,30,33,27,35,22,40,28,36,1,19,46,29,6,40,12,43,8,3,26,7,42,42,1,30,46,48,35,33,11,7,17,20,6,10,6,15,30,37,34,29,16,28,31,3,20,36,14,48,23,24,34"
dtnsim.node[15].app.start = "98,20,43,52,50,89,13,89,19,94,6,45,19,28,5,35,34,8,20,5,8,90,66,21,4,69,25,17,23,4,11,10,88,96,54,10,76,61,18,96,10,94,71,51,45,45,33,28,84,41,33,4,48,12,77,23,41,43,94,91,9,4,57,79,54,100,66,88,81,21,98,44,21,57,36,4,75,62,50,32,97,88,29,78,37,80,61,78,100,6,23,52,24,92,72,35,70,46,57,35"
dtnsim.node[15].app.destinationEid = "35,63,1,42,101,52,74,73,72,59,19,29,83,118,26,120,7,37,1,76,59,77,29,5,74,49,12,14,4,74,41,39,119,3,95,89,102,23,43,50,6,53,105,62,47,26,75,76,38,97,29,95,44,83,87,68,20,41,62,40,74,3,19,101,106,67,43,24,55,64,51,87,83,63,37,45,77,8,104,47,16,110,76,96,19,7,28,101,82,18,30,117,54,118,69,26,29,70,115,47"
dtnsim.node[15].app.size = "50,100,50,100,100,500,500,100,100,50,50,500,500,100,50,200,100,50,500,500,50,100,100,50,100,200,50,500,500,200,50,200,200,100,200,50,500,200,50,500,100,50,100,500,100,200,50,50,500,500,100,100,50,50,50,500,100,500,100,200,500,500,100,200,200,500,100,50,500,50,50,500,200,200,500,100,50,50,500,500,500,50,100,500,50,50,500,200,50,500,50,200,50,50,200,500,500,200,100,500"
        # Node 16 random traffic
dtnsim.node[16].app.enable = true
dtnsim.node[16].app.bundlesNumber = "50,12,18,46,31,17,17,17,34,34,18,16,40,28,44,27,14,25,40,49,33,39,40,10,8,36,4,42,3,43,7,14,23,4,41,3,22,20,31,6,7,17,19,3,25,38,50,36,44,41,50,20,16,14,5,34,15,39,33,16,25,45,46,40,10,32,9,48,27,21,4,40,42,49,7,4,16,13,39,25,41,8,13,5,41,17,8,20,28,17,8,6,22,17,15,30,1,19,46,2"
dtnsim.node[16].app.start = "89,18,13,77,72,95,29,16,6,90,79,69,63,43,60,7,4,90,32,27,39,5,4,52,100,31,1,82,1,74,47,77,50,43,49,99,59,19,46,48,48,61,64,12,73,52,97,73,41,67,13,99,68,94,100,56,3,81,98,44,3,2,44,91,68,79,17,99,33,62,28,10,35,83,17,15,80,6,33,4,10,85,62,75,18,28,75,66,9,13,9,20,12,37,41,95,15,25,55,24"
dtnsim.node[16].app.destinationEid = "96,11,35,101,41,86,61,2,101,81,18,1,36,39,8,11,64,8,113,31,12,52,6,103,53,99,44,39,115,83,26,55,97,69,62,27,119,86,78,118,23,45,58,53,120,31,3,53,113,64,50,30,39,68,103,108,70,96,4,21,3,67,61,74,104,2,26,2,116,34,119,8,97,99,32,65,3,79,112,54,83,78,67,104,90,101,86,109,40,50,53,59,27,98,86,64,28,109,52,64"
dtnsim.node[16].app.size = "50,500,100,50,500,500,50,100,50,100,500,50,200,50,200,200,500,500,50,200,100,500,50,200,500,500,100,200,100,500,200,50,200,100,500,50,50,200,200,200,200,500,500,50,200,500,100,50,50,500,50,100,500,50,100,100,50,50,200,200,500,100,500,100,500,200,100,200,500,200,200,200,100,500,200,200,100,200,50,50,50,100,100,500,50,50,100,200,50,100,100,50,100,50,500,100,200,200,50,200"
        # Node 17 random traffic
dtnsim.node[17].app.enable = true
dtnsim.node[17].app.bundlesNumber = "4,20,44,5,39,31,18,46,22,12,33,3,15,34,35,46,25,3,50,43,45,1,47,41,9,34,37,13,30,5,45,47,3,13,32,40,24,38,24,2,44,23,8,24,19,1,27,26,1,20,45,48,12,4,29,14,24,35,19,43,41,8,28,25,6,10,38,39,8,42,50,20,16,14,13,26,46,10,5,12,17,31,49,36,5,7,39,25,41,24,17,1,11,4,48,10,41,42,24,39"
dtnsim.node[17].app.start = "84,41,69,73,83,43,46,19,1,92,43,91,89,46,14,25,41,6,13,54,73,49,92,9,48,54,68,6,45,31,9,35,52,74,92,36,79,67,94,74,61,86,9,55,13,58,18,74,15,47,22,17,64,45,28,97,43,89,50,31,42,86,50,47,47,46,51,33,2,26,69,99,55,27,96,97,56,7,56,10,94,9,93,84,13,59,66,12,4,31,42,46,36,88,4,24,99,74,46,19"
dtnsim.node[17].app.destinationEid = "45,51,109,86,10,51,67,80,36,77,71,1,77,52,112,24,29,70,115,82,84,33,110,101,54,70,71,63,58,120,49,42,10,13,70,91,94,72,68,77,59,107,3,107,109,22,47,99,103,15,55,98,99,47,82,102,69,100,49,11,112,16,7,108,98,64,92,53,83,84,23,84,39,66,98,2,77,102,26,67,110,107,27,108,118,88,77,95,96,24,97,21,102,71,35,20,91,8,104,109"
dtnsim.node[17].app.size = "100,100,200,50,50,50,500,100,50,100,500,200,100,200,100,100,50,500,50,50,50,50,50,200,200,200,100,500,500,500,100,100,50,500,500,50,200,50,50,500,50,200,100,100,50,100,100,500,100,100,50,50,500,50,100,500,500,100,200,200,500,200,100,50,200,100,500,100,50,200,100,50,100,200,200,100,100,500,50,100,50,100,100,500,500,50,200,200,100,500,50,500,50,100,500,200,100,200,100,500"
        # Node 18 random traffic
dtnsim.node[18].app.enable = true
dtnsim.node[18].app.bundlesNumber = "17,4,39,6,45,37,9,38,3,11,41,10,44,4,40,1,50,42,30,4,3,18,31,25,41,2,42,34,25,31,3,28,45,30,31,42,37,13,23,46,6,6,19,42,15,32,44,6,15,22,33,10,13,36,37,29,15,29,8,46,48,36,6,13,28,48,44,15,33,47,50,20,20,1,27,44,1,49,37,41,10,24,1,5,42,7,18,6,8,44,20,34,36,21,16,37,1,11,31,47"
dtnsim.node[18].app.start = "57,35,70,19,76,56,34,77,18,5,92,47,31,20,50,9,21,56,42,48,26,14,70,60,84,88,8,64,13,91,57,44,69,24,19,7,4,14,40,34,12,65,63,50,1,7,21,9,5,99,52,45,70,77,52,39,20,81,62,21,98,70,58,35,86,65,58,12,11,37,41,64,21,89,51,99,57,87,35,81,66,22,61,9,39,20,87,94,28,68,40,45,24,12,89,95,77,52,23,75"
dtnsim.node[18].app.destinationEid = "96,35,111,38,80,41,94,110,16,85,88,40,72,118,26,74,80,114,17,82,30,90,117,23,49,39,109,53,31,7,68,93,23,88,17,6,6,14,87,64,30,117,112,32,47,100,6,51,9,110,120,27,56,116,101,39,39,16,11,40,23,99,10,4,53,36,24,115,5,40,6,78,23,53,91,26,85,87,46,64,91,31,72,54,110,110,30,99,39,51,19,59,34,42,34,38,86,43,37,43"
dtnsim.node[18].app.size = "100,200,50,200,500,500,100,500,500,200,50,100,50,100,500,100,500,100,500,50,50,50,100,100,100,100,50,200,200,200,100,500,500,500,50,100,200,500,500,50,50,100,200,50,200,500,50,50,50,100,100,100,500,200,500,200,100,50,100,500,50,50,50,100,100,50,50,500,100,50,200,200,200,200,50,500,200,100,200,200,200,50,100,500,50,100,50,50,200,100,50,50,500,200,500,500,500,50,500,100"
        # Node 19 random traffic
dtnsim.node[19].app.enable = true
dtnsim.node[19].app.bundlesNumber = "27,34,35,17,20,40,36,44,2,42,21,1,20,1,30,29,21,13,47,17,46,5,41,29,45,29,34,14,12,31,3,47,10,2,32,24,1,13,17,35,6,21,28,4,33,35,50,23,23,42,45,6,10,45,24,28,22,2,33,42,3,20,17,35,21,4,1,1,9,43,34,32,33,4,11,7,3,23,10,21,9,22,28,5,18,19,16,4,44,19,12,29,30,16,26,2,33,40,19,22"
dtnsim.node[19].app.start = "70,45,37,95,86,42,25,91,11,36,33,66,29,30,23,10,44,4,73,65,52,67,29,84,28,78,51,35,30,9,95,46,53,42,13,17,81,59,25,99,22,94,84,60,61,86,55,99,49,43,43,50,61,89,59,28,99,50,68,61,25,56,89,35,86,79,83,61,30,40,97,86,53,94,32,62,34,75,24,75,35,59,72,80,74,74,95,87,61,86,90,59,35,2,67,17,91,45,44,33"
dtnsim.node[19].app.destinationEid = "104,43,76,115,76,117,83,38,76,116,72,74,24,90,9,108,43,35,17,84,60,94,109,114,89,119,29,116,35,26,74,79,114,89,21,43,100,79,59,46,36,91,35,36,14,59,73,86,12,16,74,120,22,36,31,117,84,65,102,4,11,1,1,39,6,109,20,79,16,100,69,4,99,12,2,104,1,54,41,43,46,37,15,8,67,23,73,112,12,29,28,43,36,91,90,38,118,4,109,13"
dtnsim.node[19].app.size = "200,500,500,100,50,100,500,100,200,200,100,200,50,50,200,100,500,100,50,200,200,100,50,200,50,500,200,500,50,100,100,100,50,50,200,500,500,500,500,100,200,50,100,500,500,100,500,500,500,200,200,500,100,100,50,200,200,50,500,200,50,100,100,50,500,50,500,100,50,500,100,50,50,50,100,100,100,200,100,500,50,200,50,500,200,50,200,500,50,500,200,50,200,500,500,200,200,200,100,50"
        # Node 20 random traffic
dtnsim.node[20].app.enable = true
dtnsim.node[20].app.bundlesNumber = "32,29,32,35,21,21,48,16,48,35,4,32,29,9,44,7,42,31,40,26,33,38,3,22,38,30,7,19,14,19,23,20,16,17,8,1,46,50,47,32,11,18,46,44,29,30,35,12,21,43,3,10,3,16,35,20,15,8,11,29,19,49,7,9,49,1,4,47,44,37,43,15,16,4,42,38,33,1,3,46,25,7,9,29,50,20,9,30,2,36,4,17,32,11,3,23,49,17,28,2"
dtnsim.node[20].app.start = "71,23,75,14,14,83,93,28,100,18,54,89,69,90,73,52,61,65,99,5,78,71,23,42,22,86,99,35,91,22,57,61,29,16,29,15,47,28,30,13,43,54,44,3,25,3,54,67,12,95,94,24,83,98,64,60,69,76,13,40,15,89,31,29,9,68,86,26,77,90,64,99,79,3,29,49,49,5,71,42,43,72,6,72,38,86,47,3,19,74,41,20,43,90,27,24,5,26,86,49"
dtnsim.node[20].app.destinationEid = "104,69,69,58,72,69,69,99,10,31,59,112,63,57,116,22,33,15,58,15,62,10,59,88,93,79,30,10,66,16,7,105,26,23,70,19,66,86,111,100,61,76,21,95,66,63,10,87,81,100,54,37,16,62,89,29,11,70,47,40,86,1,21,57,62,110,109,91,72,91,25,53,82,96,36,15,87,63,48,49,107,108,36,115,70,7,68,94,46,59,75,114,69,12,18,26,116,7,23,1"
dtnsim.node[20].app.size = "50,50,100,100,500,50,200,100,500,500,200,50,500,500,50,50,100,200,50,100,500,100,500,500,500,200,500,100,200,50,500,200,50,50,100,100,500,200,200,500,50,200,200,200,50,200,50,50,100,200,100,100,100,100,500,50,200,50,500,500,200,200,100,100,200,200,50,100,500,100,100,200,200,50,500,50,500,50,500,200,50,200,500,500,500,100,50,200,200,50,500,100,50,100,100,50,200,50,100,200"
        # Node 21 random traffic
dtnsim.node[21].app.enable = true