[General]
network = src.dtnsim										
repeat = 1
allow-object-stealing-on-deletion = true

# Simulation end time
sim-time-limit = 84600s

# Nodes quantity (identifiers (EiDs) matches their index, EiD=0 is ignored)			
dtnsim.nodesNumber = 360
dtnsim.node[*].icon = "satellite"

# Nodes's failure rates
dtnsim.node[*].fault.enable = true
dtnsim.node[*].fault.meanTTF = 40s
dtnsim.node[*].fault.meanTTR = 10s

# Mobility
dtnsim.node[*].hasMobility = true
dtnsim.node[*].norad.satIndex = parentIndex()
dtnsim.node[*].norad.satName = "sat"
**.updateInterval = 20s
**.numOfSats = 360
**.satPerPlane = 18
**.altitude = 540
**.planes = 20
**.phaseOffset = 11

dtnsim.node[*].dtn.routing = "antop"
dtnsim.node[*].dtn.printRoutingDebug = true

# --- Random Traffic Configuration ---
# Node 1 random traffic
dtnsim.node[1].app.enable = true
dtnsim.node[1].app.bundlesNumber = "23,11,1,12,24,1,23,4,1"
dtnsim.node[1].app.start = "17,69,27,92,4,84,44,94,30"
dtnsim.node[1].app.destinationEid = "183,313,105,211,222,286,247,192,70"
dtnsim.node[1].app.size = "500,200,50,50,500,500,50,500,200"
# Node 2 random traffic
dtnsim.node[2].app.enable = true
dtnsim.node[2].app.bundlesNumber = "6,6,19,3,11,5,22,15,13"
dtnsim.node[2].app.start = "37,80,89,79,92,46,22,33,5"
dtnsim.node[2].app.destinationEid = "142,175,226,7,321,116,204,284,306"
dtnsim.node[2].app.size = "200,200,500,200,50,200,500,200,50"
# Node 3 random traffic
dtnsim.node[3].app.enable = true
dtnsim.node[3].app.bundlesNumber = "1,12,4,1,21,23,12,22,2,1,1"
dtnsim.node[3].app.start = "24,43,39,69,62,59,58,17,17,42,56"
dtnsim.node[3].app.destinationEid = "238,255,142,6,48,80,226,58,175,322,153"
dtnsim.node[3].app.size = "200,50,500,200,500,500,50,100,50,500,50"
# Node 4 random traffic
dtnsim.node[4].app.enable = true
dtnsim.node[4].app.bundlesNumber = "20,5,13,12,5,9,14,2,14,4,1,1"
dtnsim.node[4].app.start = "75,59,65,19,44,96,10,1,19,96,33,80"
dtnsim.node[4].app.destinationEid = "186,67,45,130,27,284,190,229,232,99,48,85"
dtnsim.node[4].app.size = "200,500,50,200,100,200,200,500,200,500,500,500"
# Node 5 random traffic
dtnsim.node[5].app.enable = true
dtnsim.node[5].app.bundlesNumber = "13,19,11,5,20,13,8,5,5,1"
dtnsim.node[5].app.start = "91,83,88,21,1,63,27,70,44,72"
dtnsim.node[5].app.destinationEid = "256,290,237,36,283,334,272,102,179,41"
dtnsim.node[5].app.size = "100,200,50,200,100,50,200,100,50,500"
# Node 6 random traffic
dtnsim.node[6].app.enable = true
dtnsim.node[6].app.bundlesNumber = "18,7,3,15,4,3,2,24,14,9,1"
dtnsim.node[6].app.start = "32,66,34,14,20,16,13,35,26,13,67"
dtnsim.node[6].app.destinationEid = "140,37,78,344,116,228,314,211,72,44,281"
dtnsim.node[6].app.size = "500,50,100,50,500,100,100,500,100,500,500"
# Node 7 random traffic
dtnsim.node[7].app.enable = true
dtnsim.node[7].app.bundlesNumber = "17,13,1,7,14,22,16,3,5,2"
dtnsim.node[7].app.start = "1,2,14,84,80,26,79,15,82,37"
dtnsim.node[7].app.destinationEid = "99,97,10,202,30,126,57,305,327,19"
dtnsim.node[7].app.size = "50,200,50,100,100,50,500,500,100,200"
# Node 8 random traffic
dtnsim.node[8].app.enable = true
dtnsim.node[8].app.bundlesNumber = "16,24,13,9,14,6,12,6"
dtnsim.node[8].app.start = "53,57,88,49,66,95,43,12"
dtnsim.node[8].app.destinationEid = "79,262,119,196,80,310,344,10"
dtnsim.node[8].app.size = "200,100,200,200,500,200,500,500"
# Node 9 random traffic
dtnsim.node[9].app.enable = true
dtnsim.node[9].app.bundlesNumber = "2,21,21,5,1,13,13,17,5,1,1"
dtnsim.node[9].app.start = "57,73,78,52,86,86,57,43,40,51,89"
dtnsim.node[9].app.destinationEid = "52,164,348,281,129,217,104,97,297,255,33"
dtnsim.node[9].app.size = "100,500,200,50,100,100,500,500,200,50,200"
# Node 10 random traffic
dtnsim.node[10].app.enable = true
dtnsim.node[10].app.bundlesNumber = "7,4,17,13,17,13,23,4,2"
dtnsim.node[10].app.start = "12,50,1,15,72,78,2,9,89"
dtnsim.node[10].app.destinationEid = "251,330,327,104,110,132,79,8,8"
dtnsim.node[10].app.size = "50,200,100,50,100,500,200,100,500"
# Node 11 random traffic
dtnsim.node[11].app.enable = true
dtnsim.node[11].app.bundlesNumber = "6,24,15,1,21,2,15,9,1,5,1"
dtnsim.node[11].app.start = "2,34,4,57,8,57,25,77,48,47,79"
dtnsim.node[11].app.destinationEid = "353,170,235,12,289,155,10,26,290,185,146"
dtnsim.node[11].app.size = "50,200,100,100,100,200,200,100,500,100,200"
# Node 12 random traffic
dtnsim.node[12].app.enable = true
dtnsim.node[12].app.bundlesNumber = "23,7,22,4,16,19,8,1"
dtnsim.node[12].app.start = "55,85,81,28,81,67,88,17"
dtnsim.node[12].app.destinationEid = "285,38,63,123,146,354,308,109"
dtnsim.node[12].app.size = "50,500,100,500,500,50,50,500"
# Node 13 random traffic
dtnsim.node[13].app.enable = true
dtnsim.node[13].app.bundlesNumber = "11,24,16,10,16,9,3,2,5,4"
dtnsim.node[13].app.start = "100,55,31,68,35,97,89,74,96,58"
dtnsim.node[13].app.destinationEid = "156,92,265,279,357,157,11,352,122,174"
dtnsim.node[13].app.size = "50,200,500,50,100,200,100,50,100,50"
# Node 14 random traffic
dtnsim.node[14].app.enable = true
dtnsim.node[14].app.bundlesNumber = "22,15,15,4,11,21,4,7,1"
dtnsim.node[14].app.start = "85,75,80,54,32,75,48,35,82"
dtnsim.node[14].app.destinationEid = "262,79,132,289,227,210,169,59,255"
dtnsim.node[14].app.size = "50,100,500,200,500,500,50,200,100"
# Node 15 random traffic
dtnsim.node[15].app.enable = true
dtnsim.node[15].app.bundlesNumber = "2,19,22,1,14,16,7,5,6,6,1,1"
dtnsim.node[15].app.start = "68,27,14,25,75,53,44,21,23,64,35,11"
dtnsim.node[15].app.destinationEid = "155,261,183,203,199,282,43,6,141,32,217,237"
dtnsim.node[15].app.size = "500,100,50,50,100,500,50,50,500,200,500,500"
# Node 16 random traffic
dtnsim.node[16].app.enable = true
dtnsim.node[16].app.bundlesNumber = "14,25,4,3,14,2,10,2,3,4,6,7,1,5"
dtnsim.node[16].app.start = "92,39,2,70,36,56,50,27,18,4,30,1,27,11"
dtnsim.node[16].app.destinationEid = "5,232,213,8,260,8,347,198,107,230,166,353,175,151"
dtnsim.node[16].app.size = "50,200,200,500,500,200,500,100,100,500,200,500,100,500"
# Node 17 random traffic
dtnsim.node[17].app.enable = true
dtnsim.node[17].app.bundlesNumber = "25,7,16,23,6,4,17,1,1"
dtnsim.node[17].app.start = "37,61,53,47,53,97,23,59,89"
dtnsim.node[17].app.destinationEid = "175,310,319,285,196,192,159,260,68"
dtnsim.node[17].app.size = "500,100,200,500,200,200,500,500,200"
# Node 18 random traffic
dtnsim.node[18].app.enable = true
dtnsim.node[18].app.bundlesNumber = "12,13,20,4,7,5,14,10,5,3,4,3"
dtnsim.node[18].app.start = "74,21,45,51,91,1,10,47,4,97,10,3"
dtnsim.node[18].app.destinationEid = "27,357,272,354,215,85,102,5,147,329,23,26"
dtnsim.node[18].app.size = "100,100,50,100,100,50,200,100,100,100,50,500"
# Node 19 random traffic
dtnsim.node[19].app.enable = true
dtnsim.node[19].app.bundlesNumber = "23,16,13,5,22,19,2"
dtnsim.node[19].app.start = "36,53,23,70,41,70,37"
dtnsim.node[19].app.destinationEid = "246,62,310,292,180,21,284"
dtnsim.node[19].app.size = "500,50,200,500,100,100,500"
# Node 20 random traffic
dtnsim.node[20].app.enable = true
dtnsim.node[20].app.bundlesNumber = "7,9,9,5,21,14,2,3,25,5"
dtnsim.node[20].app.start = "7,53,30,28,39,23,49,68,74,57"
dtnsim.node[20].app.destinationEid = "311,11,1,73,204,325,285,329,281,166"
dtnsim.node[20].app.size = "200,100,100,100,200,50,500,200,200,200"
# Node 21 random traffic
dtnsim.node[21].app.enable = true
dtnsim.node[21].app.bundlesNumber = "7,18,25,17,22,1,1,2,7"
dtnsim.node[21].app.start = "67,24,26,47,59,46,55,87,67"
dtnsim.node[21].app.destinationEid = "226,16,317,108,97,159,318,266,18"
dtnsim.node[21].app.size = "500,100,500,200,200,50,50,50,500"
# Node 22 random traffic
dtnsim.node[22].app.enable = true
dtnsim.node[22].app.bundlesNumber = "20,8,6,15,19,7,6,6,2,6,5"
dtnsim.node[22].app.start = "13,73,98,9,77,59,39,11,31,88,76"
dtnsim.node[22].app.destinationEid = "171,34,246,120,38,14,257,97,79,160,79"
dtnsim.node[22].app.size = "200,500,500,50,200,200,100,200,200,200,200"
# Node 23 random traffic
dtnsim.node[23].app.enable = true
dtnsim.node[23].app.bundlesNumber = "9,6,19,11,9,21,8,6,11"
dtnsim.node[23].app.start = "68,16,72,24,18,7,71,66,25"
dtnsim.node[23].app.destinationEid = "227,261,290,209,317,214,162,305,17"
dtnsim.node[23].app.size = "500,100,500,100,50,50,50,100,200"
# Node 24 random traffic
dtnsim.node[24].app.enable = true
dtnsim.node[24].app.bundlesNumber = "13,23,3,3,7,10,20,19,1,1"
dtnsim.node[24].app.start = "37,14,48,34,95,42,59,91,66,49"
dtnsim.node[24].app.destinationEid = "219,32,47,223,292,162,67,202,77,289"
dtnsim.node[24].app.size = "50,100,500,100,500,200,500,500,100,200"
# Node 25 random traffic
dtnsim.node[25].app.enable = true
dtnsim.node[25].app.bundlesNumber = "6,1,19,2,21,25,2,10,4,2,8"
dtnsim.node[25].app.start = "47,82,42,54,7,49,6,26,81,34,19"
dtnsim.node[25].app.destinationEid = "254,145,205,306,140,358,271,232,190,302,193"
dtnsim.node[25].app.size = "200,100,50,500,100,50,500,50,500,500,50"
# Node 26 random traffic
dtnsim.node[26].app.enable = true
dtnsim.node[26].app.bundlesNumber = "19,6,2,9,24,12,9,16,2,1"
dtnsim.node[26].app.start = "43,16,66,51,68,23,98,63,23,69"
dtnsim.node[26].app.destinationEid = "334,276,95,357,206,65,198,347,104,278"
dtnsim.node[26].app.size = "100,200,200,500,200,100,50,50,500,50"
# Node 27 random traffic
dtnsim.node[27].app.enable = true
dtnsim.node[27].app.bundlesNumber = "11,9,11,18,2,20,4,13,2,5,2,2,1"
dtnsim.node[27].app.start = "76,74,56,43,33,43,7,36,10,24,89,21,100"
dtnsim.node[27].app.destinationEid = "292,357,325,298,73,319,203,170,298,207,316,334,69"
dtnsim.node[27].app.size = "200,500,200,50,100,200,100,200,200,200,500,500,200"
# Node 28 random traffic
dtnsim.node[28].app.enable = true
dtnsim.node[28].app.bundlesNumber = "21,24,2,24,24,2,1,1,1"
dtnsim.node[28].app.start = "25,1,35,3,17,65,73,11,3"
dtnsim.node[28].app.destinationEid = "151,167,242,191,78,206,345,87,107"
dtnsim.node[28].app.size = "200,200,100,50,200,500,100,50,200"
# Node 29 random traffic
dtnsim.node[29].app.enable = true
dtnsim.node[29].app.bundlesNumber = "4,8,3,13,13,8,14,5,6,15,9,2"
dtnsim.node[29].app.start = "80,65,58,69,23,35,78,42,65,43,9,27"
dtnsim.node[29].app.destinationEid = "96,291,186,10,88,98,339,60,227,352,13,82"
dtnsim.node[29].app.size = "50,50,100,500,100,200,50,50,200,500,500,200"
# Node 30 random traffic
dtnsim.node[30].app.enable = true
dtnsim.node[30].app.bundlesNumber = "20,1,22,18,10,12,9,5,3"
dtnsim.node[30].app.start = "58,87,68,69,56,93,88,49,59"
dtnsim.node[30].app.destinationEid = "122,114,328,20,13,236,340,11,322"
dtnsim.node[30].app.size = "50,50,50,200,50,500,100,500,100"
# Node 31 random traffic
dtnsim.node[31].app.enable = true
dtnsim.node[31].app.bundlesNumber = "6,3,15,12,12,18,19,8,6,1"
dtnsim.node[31].app.start = "95,43,92,94,22,81,79,65,73,3"
dtnsim.node[31].app.destinationEid = "332,43,73,337,245,225,103,255,334,192"
dtnsim.node[31].app.size = "200,200,500,500,50,200,200,500,500,200"
# Node 32 random traffic
dtnsim.node[32].app.enable = true
dtnsim.node[32].app.bundlesNumber = "17,11,3,11,14,14,4,16,6,2,1,1"
dtnsim.node[32].app.start = "58,10,92,52,55,23,53,96,11,49,9,15"
dtnsim.node[32].app.destinationEid = "83,311,356,5,56,233,209,163,353,245,275,169"
dtnsim.node[32].app.size = "500,100,200,50,200,50,100,500,50,50,100,50"
# Node 33 random traffic
dtnsim.node[33].app.enable = true
dtnsim.node[33].app.bundlesNumber = "23,16,22,10,15,13,1"
dtnsim.node[33].app.start = "12,48,23,24,78,82,45"
dtnsim.node[33].app.destinationEid = "82,25,264,140,6,216,211"
dtnsim.node[33].app.size = "500,100,100,100,500,200,50"
# Node 34 random traffic
dtnsim.node[34].app.enable = true
dtnsim.node[34].app.bundlesNumber = "12,19,6,9,8,13,19,11,3"
dtnsim.node[34].app.start = "43,80,11,5,35,64,12,67,19"
dtnsim.node[34].app.destinationEid = "122,257,6,175,135,324,222,98,285"
dtnsim.node[34].app.size = "50,500,100,100,500,100,500,50,200"
# Node 35 random traffic
dtnsim.node[35].app.enable = true
dtnsim.node[35].app.bundlesNumber = "9,16,17,15,12,23,8"
dtnsim.node[35].app.start = "54,13,86,40,14,25,6"
dtnsim.node[35].app.destinationEid = "254,144,301,31,225,213,131"
dtnsim.node[35].app.size = "200,100,500,100,200,50,100"
# Node 36 random traffic
dtnsim.node[36].app.enable = true
dtnsim.node[36].app.bundlesNumber = "17,19,13,19,6,11,8,7"
dtnsim.node[36].app.start = "91,36,69,51,55,52,36,63"
dtnsim.node[36].app.destinationEid = "56,268,196,17,80,224,99,208"
dtnsim.node[36].app.size = "500,50,50,100,50,100,100,500"
# Node 37 random traffic
dtnsim.node[37].app.enable = true
dtnsim.node[37].app.bundlesNumber = "24,16,25,16,15,2,2"
dtnsim.node[37].app.start = "87,66,46,16,74,55,70"
dtnsim.node[37].app.destinationEid = "93,63,119,186,26,10,295"
dtnsim.node[37].app.size = "50,50,50,500,200,500,100"
# Node 38 random traffic
dtnsim.node[38].app.enable = true
dtnsim.node[38].app.bundlesNumber = "7,10,9,11,17,20,6,19,1"
dtnsim.node[38].app.start = "81,81,99,73,91,35,76,92,76"
dtnsim.node[38].app.destinationEid = "272,121,132,262,158,231,163,282,74"
dtnsim.node[38].app.size = "100,200,500,500,100,500,200,50,500"
# Node 39 random traffic
dtnsim.node[39].app.enable = true
dtnsim.node[39].app.bundlesNumber = "1,4,4,12,19,3,25,23,7,2"
dtnsim.node[39].app.start = "20,13,65,93,55,30,60,27,56,20"
dtnsim.node[39].app.destinationEid = "266,250,101,65,142,18,169,224,14,57"
dtnsim.node[39].app.size = "500,100,50,200,500,100,500,200,200,200"
# Node 40 random traffic
dtnsim.node[40].app.enable = true
dtnsim.node[40].app.bundlesNumber = "23,18,6,4,8,24,8,6,3"
dtnsim.node[40].app.start = "69,69,3,54,47,93,42,44,11"
dtnsim.node[40].app.destinationEid = "1,338,112,238,321,284,284,238,101"
dtnsim.node[40].app.size = "500,200,100,200,500,100,200,200,200"
# Node 41 random traffic
dtnsim.node[41].app.enable = true
dtnsim.node[41].app.bundlesNumber = "25,16,7,22,7,1,13,7,2"
dtnsim.node[41].app.start = "25,5,48,61,34,33,22,74,98"
dtnsim.node[41].app.destinationEid = "259,163,307,160,64,80,342,342,49"
dtnsim.node[41].app.size = "50,200,200,100,200,200,500,50,200"
# Node 42 random traffic
dtnsim.node[42].app.enable = true
dtnsim.node[42].app.bundlesNumber = "21,2,11,10,6,9,14,7,6,12,1,1"
dtnsim.node[42].app.start = "59,79,47,89,87,57,73,93,93,75,3,11"
dtnsim.node[42].app.destinationEid = "103,224,24,203,132,125,60,158,96,257,150,202"
dtnsim.node[42].app.size = "100,50,100,500,100,500,500,50,500,200,50,100"
# Node 43 random traffic
dtnsim.node[43].app.enable = true
dtnsim.node[43].app.bundlesNumber = "11,4,4,4,23,2,8,10,18,3,9,3,1"
dtnsim.node[43].app.start = "37,26,45,53,4,69,51,76,68,4,91,45,19"
dtnsim.node[43].app.destinationEid = "174,75,283,172,242,118,188,236,52,17,233,156,70"
dtnsim.node[43].app.size = "100,100,50,50,100,500,500,50,200,50,500,50,500"
# Node 44 random traffic
dtnsim.node[44].app.enable = true
dtnsim.node[44].app.bundlesNumber = "21,21,16,24,17,1"
dtnsim.node[44].app.start = "50,39,57,74,5,58"
dtnsim.node[44].app.destinationEid = "148,203,225,72,329,86"
dtnsim.node[44].app.size = "500,200,50,500,500,500"
# Node 45 random traffic
dtnsim.node[45].app.enable = true
dtnsim.node[45].app.bundlesNumber = "16,11,15,5,14,18,7,2,8,3,1"
dtnsim.node[45].app.start = "81,6,3,40,49,21,99,75,15,92,95"
dtnsim.node[45].app.destinationEid = "325,5,40,251,148,215,222,270,110,97,264"
dtnsim.node[45].app.size = "500,50,100,100,200,500,500,200,50,200,200"
# Node 46 random traffic
dtnsim.node[46].app.enable = true
dtnsim.node[46].app.bundlesNumber = "16,18,8,14,8,17,2,6,5,1,4,1"
dtnsim.node[46].app.start = "84,46,13,77,42,97,51,90,8,35,87,62"
dtnsim.node[46].app.destinationEid = "65,4,31,72,186,229,3,294,121,128,352,180"
dtnsim.node[46].app.size = "100,50,100,200,50,200,500,500,200,100,200,100"
# Node 47 random traffic
dtnsim.node[47].app.enable = true
dtnsim.node[47].app.bundlesNumber = "11,6,13,16,20,17,14,3"
dtnsim.node[47].app.start = "71,32,64,10,22,63,14,25"
dtnsim.node[47].app.destinationEid = "44,227,87,226,267,69,43,147"
dtnsim.node[47].app.size = "200,500,500,50,500,50,50,200"
# Node 48 random traffic
dtnsim.node[48].app.enable = true
dtnsim.node[48].app.bundlesNumber = "8,1,24,10,11,11,5,22,4,4"
dtnsim.node[48].app.start = "40,2,68,23,83,75,13,18,42,84"
dtnsim.node[48].app.destinationEid = "137,347,310,259,82,250,223,68,218,75"
dtnsim.node[48].app.size = "500,100,100,100,50,500,50,200,100,200"
# Node 49 random traffic
dtnsim.node[49].app.enable = true
dtnsim.node[49].app.bundlesNumber = "8,4,15,16,20,5,7,13,5,4,3"
dtnsim.node[49].app.start = "59,17,29,51,24,75,46,43,41,54,23"
dtnsim.node[49].app.destinationEid = "182,221,226,1,146,188,330,164,112,324,136"
dtnsim.node[49].app.size = "500,500,500,500,100,200,50,200,200,50,100"
# Node 50 random traffic
dtnsim.node[50].app.enable = true
dtnsim.node[50].app.bundlesNumber = "12,14,19,23,17,7,4,3,1"
dtnsim.node[50].app.start = "85,70,61,71,7,45,45,59,41"
dtnsim.node[50].app.destinationEid = "30,263,290,282,134,75,280,336,97"
dtnsim.node[50].app.size = "100,50,50,50,100,100,50,50,100"
# Node 51 random traffic
dtnsim.node[51].app.enable = true
dtnsim.node[51].app.bundlesNumber = "11,6,18,20,5,24,14,2"
dtnsim.node[51].app.start = "68,45,25,33,42,71,100,88"
dtnsim.node[51].app.destinationEid = "216,337,310,254,344,265,52,347"
dtnsim.node[51].app.size = "50,500,500,100,50,100,50,500"
# Node 52 random traffic
dtnsim.node[52].app.enable = true
dtnsim.node[52].app.bundlesNumber = "20,13,2,15,6,13,3,2,5,5,16"
dtnsim.node[52].app.start = "53,86,80,58,36,21,70,24,19,9,69"
dtnsim.node[52].app.destinationEid = "335,49,259,168,102,189,86,61,28,184,165"
dtnsim.node[52].app.size = "100,200,100,100,200,50,50,500,50,200,500"
# Node 53 random traffic
dtnsim.node[53].app.enable = true
dtnsim.node[53].app.bundlesNumber = "16,6,14,13,23,4,11,8,1,3,1"
dtnsim.node[53].app.start = "2,61,45,38,6,61,6,50,19,21,19"
dtnsim.node[53].app.destinationEid = "259,313,135,202,248,57,131,139,45,271,110"
dtnsim.node[53].app.size = "500,100,50,50,200,50,500,200,500,100,100"
# Node 54 random traffic
dtnsim.node[54].app.enable = true
dtnsim.node[54].app.bundlesNumber = "23,1,12,18,1,24,3,12,3,2,1"
dtnsim.node[54].app.start = "8,41,23,57,66,45,74,98,11,77,10"
dtnsim.node[54].app.destinationEid = "171,292,24,228,191,43,50,158,45,27,188"
dtnsim.node[54].app.size = "200,200,500,100,200,200,200,500,500,50,200"
# Node 55 random traffic
dtnsim.node[55].app.enable = true
dtnsim.node[55].app.bundlesNumber = "16,13,20,21,10,9,9,1,1"
dtnsim.node[55].app.start = "83,34,14,93,93,10,94,87,80"
dtnsim.node[55].app.destinationEid = "45,30,134,241,17,178,141,329,324"
dtnsim.node[55].app.size = "200,100,50,100,100,200,100,100,500"
# Node 56 random traffic
dtnsim.node[56].app.enable = true
dtnsim.node[56].app.bundlesNumber = "7,24,1,20,5,3,22,9,7,1,1"
dtnsim.node[56].app.start = "40,7,100,9,49,98,89,49,57,13,5"
dtnsim.node[56].app.destinationEid = "175,147,8,253,201,15,106,340,331,360,218"
dtnsim.node[56].app.size = "500,100,200,500,50,50,100,200,500,500,200"
# Node 57 random traffic
dtnsim.node[57].app.enable = true
dtnsim.node[57].app.bundlesNumber = "12,6,20,22,23,7,7,3"
dtnsim.node[57].app.start = "80,38,47,24,35,6,53,87"
dtnsim.node[57].app.destinationEid = "337,285,2,40,126,309,131,36"
dtnsim.node[57].app.size = "200,500,500,500,50,50,200,100"
# Node 58 random traffic
dtnsim.node[58].app.enable = true
dtnsim.node[58].app.bundlesNumber = "24,12,11,13,19,1,5,4,2,6,1,2"
dtnsim.node[58].app.start = "2,34,58,17,73,13,96,51,85,88,36,26"
dtnsim.node[58].app.destinationEid = "194,302,114,163,359,32,328,256,283,69,216,67"
dtnsim.node[58].app.size = "200,200,200,50,500,500,50,200,100,100,100,200"
# Node 59 random traffic
dtnsim.node[59].app.enable = true
dtnsim.node[59].app.bundlesNumber = "19,19,6,1,1,3,7,5,16,9,9,5"
dtnsim.node[59].app.start = "64,73,89,85,44,24,68,61,90,79,10,93"
dtnsim.node[59].app.destinationEid = "353,97,360,159,246,222,35,28,95,276,93,344"
dtnsim.node[59].app.size = "200,200,50,200,100,500,100,200,500,50,100,100"
# Node 60 random traffic
dtnsim.node[60].app.enable = true
dtnsim.node[60].app.bundlesNumber = "18,12,16,2,1,9,10,5,12,1,1,8,5"
dtnsim.node[60].app.start = "77,18,9,32,68,2,68,31,36,19,100,50,100"
dtnsim.node[60].app.destinationEid = "87,269,46,187,226,28,10,75,310,334,204,353,310"
dtnsim.node[60].app.size = "100,100,500,200,200,50,200,100,500,200,100,200,100"
# Node 61 random traffic
dtnsim.node[61].app.enable = true
dtnsim.node[61].app.bundlesNumber = "21,24,25,17,10,3"
dtnsim.node[61].app.start = "61,75,30,66,48,8"
dtnsim.node[61].app.destinationEid = "39,288,300,178,350,89"
dtnsim.node[61].app.size = "200,100,200,50,500,100"
# Node 62 random traffic
dtnsim.node[62].app.enable = true
dtnsim.node[62].app.bundlesNumber = "12,4,16,24,20,22,1,1"
dtnsim.node[62].app.start = "100,57,100,72,66,23,38,72"
dtnsim.node[62].app.destinationEid = "8,164,247,318,261,198,202,171"
dtnsim.node[62].app.size = "500,100,500,50,500,100,100,500"
# Node 63 random traffic
dtnsim.node[63].app.enable = true
dtnsim.node[63].app.bundlesNumber = "11,11,23,21,13,12,5,3,1"
dtnsim.node[63].app.start = "60,94,49,46,73,59,39,66,54"
dtnsim.node[63].app.destinationEid = "299,225,111,174,274,67,242,269,142"
dtnsim.node[63].app.size = "500,100,100,500,500,50,500,200,100"
# Node 64 random traffic
dtnsim.node[64].app.enable = true
dtnsim.node[64].app.bundlesNumber = "6,20,24,9,18,4,17,1,1"
dtnsim.node[64].app.start = "39,98,53,14,55,49,19,20,23"
dtnsim.node[64].app.destinationEid = "205,324,125,249,166,289,33,310,119"
dtnsim.node[64].app.size = "100,500,100,100,200,200,500,100,100"
# Node 65 random traffic
dtnsim.node[65].app.enable = true
dtnsim.node[65].app.bundlesNumber = "2,25,23,19,14,1,12,4"
dtnsim.node[65].app.start = "69,100,83,73,43,37,65,33"
dtnsim.node[65].app.destinationEid = "280,360,55,208,19,76,328,276"
dtnsim.node[65].app.size = "50,200,500,200,200,100,500,500"
# Node 66 random traffic
dtnsim.node[66].app.enable = true
dtnsim.node[66].app.bundlesNumber = "23,5,11,10,14,16,1,1,18,1"
dtnsim.node[66].app.start = "72,26,3,68,32,96,94,16,39,25"
dtnsim.node[66].app.destinationEid = "4,60,92,143,163,94,11,274,62,44"
dtnsim.node[66].app.size = "200,100,500,100,50,500,200,200,200,50"
# Node 67 random traffic
dtnsim.node[67].app.enable = true
dtnsim.node[67].app.bundlesNumber = "25,2,19,3,9,10,14,12,6"
dtnsim.node[67].app.start = "97,28,47,22,52,39,2,34,9"
dtnsim.node[67].app.destinationEid = "288,167,109,182,343,61,227,119,266"
dtnsim.node[67].app.size = "50,500,50,100,200,50,500,100,200"
# Node 68 random traffic
dtnsim.node[68].app.enable = true
dtnsim.node[68].app.bundlesNumber = "21,4,5,8,1,22,24,1,13,1"
dtnsim.node[68].app.start = "81,70,99,4,17,10,16,37,64,57"
dtnsim.node[68].app.destinationEid = "291,89,171,205,208,58,81,70,72,285"
dtnsim.node[68].app.size = "50,500,200,500,200,500,50,50,100,200"
# Node 69 random traffic
dtnsim.node[69].app.enable = true
dtnsim.node[69].app.bundlesNumber = "19,22,8,16,17,17,1"
dtnsim.node[69].app.start = "95,15,90,34,36,34,40"
dtnsim.node[69].app.destinationEid = "191,267,42,270,113,288,34"
dtnsim.node[69].app.size = "100,100,500,200,200,500,200"
# Node 70 random traffic
dtnsim.node[70].app.enable = true
dtnsim.node[70].app.bundlesNumber = "17,20,19,3,19,14,7,1"
dtnsim.node[70].app.start = "66,18,93,18,31,30,90,91"
dtnsim.node[70].app.destinationEid = "309,186,322,197,225,34,221,248"
dtnsim.node[70].app.size = "50,200,500,200,500,500,50,500"
# Node 71 random traffic
dtnsim.node[71].app.enable = true
dtnsim.node[71].app.bundlesNumber = "1,21,20,13,11,16,9,5,4"
dtnsim.node[71].app.start = "82,76,34,48,89,15,95,74,42"
dtnsim.node[71].app.destinationEid = "261,65,23,197,114,130,289,15,161"
dtnsim.node[71].app.size = "100,200,50,50,200,100,500,200,50"
# Node 72 random traffic
dtnsim.node[72].app.enable = true
dtnsim.node[72].app.bundlesNumber = "17,2,8,8,4,11,7,14,13,9,7"
dtnsim.node[72].app.start = "97,81,30,34,99,45,45,38,2,75,52"
dtnsim.node[72].app.destinationEid = "274,150,44,219,87,323,199,351,53,254,65"
dtnsim.node[72].app.size = "100,200,50,50,200,500,500,500,100,200,50"
# Node 73 random traffic
dtnsim.node[73].app.enable = true
dtnsim.node[73].app.bundlesNumber = "18,24,15,3,3,15,13,7,2"
dtnsim.node[73].app.start = "60,17,29,16,66,27,78,29,52"
dtnsim.node[73].app.destinationEid = "248,183,84,145,259,249,330,165,123"
dtnsim.node[73].app.size = "50,100,500,50,50,200,200,100,50"
# Node 74 random traffic
dtnsim.node[74].app.enable = true
dtnsim.node[74].app.bundlesNumber = "13,7,17,22,10,8,12,11"
dtnsim.node[74].app.start = "56,7,47,88,95,58,71,61"
dtnsim.node[74].app.destinationEid = "105,162,52,3,237,24,353,30"
dtnsim.node[74].app.size = "500,200,200,500,500,200,500,500"
# Node 75 random traffic
dtnsim.node[75].app.enable = true
dtnsim.node[75].app.bundlesNumber = "23,18,3,25,25,4,1,1"
dtnsim.node[75].app.start = "26,22,22,81,82,26,19,53"
dtnsim.node[75].app.destinationEid = "90,37,234,39,312,139,198,156"
dtnsim.node[75].app.size = "100,500,500,200,200,50,500,50"
# Node 76 random traffic
dtnsim.node[76].app.enable = true
dtnsim.node[76].app.bundlesNumber = "23,6,21,7,4,19,19,1"
dtnsim.node[76].app.start = "100,92,49,52,28,80,6,98"
dtnsim.node[76].app.destinationEid = "21,283,41,48,12,258,248,305"
dtnsim.node[76].app.size = "200,200,500,100,200,200,200,50"
# Node 77 random traffic
dtnsim.node[77].app.enable = true
dtnsim.node[77].app.bundlesNumber = "23,21,10,21,18,5,2"
dtnsim.node[77].app.start = "43,22,12,64,68,95,63"
dtnsim.node[77].app.destinationEid = "284,253,263,96,156,154,172"
dtnsim.node[77].app.size = "50,50,500,500,200,100,200"
# Node 78 random traffic
dtnsim.node[78].app.enable = true
dtnsim.node[78].app.bundlesNumber = "17,2,22,11,7,1,23,3,8,3,3"
dtnsim.node[78].app.start = "47,69,74,84,39,14,26,23,77,51,97"
dtnsim.node[78].app.destinationEid = "73,165,257,176,353,120,42,224,14,146,256"
dtnsim.node[78].app.size = "100,500,200,500,50,50,50,50,100,200,50"
# Node 79 random traffic
dtnsim.node[79].app.enable = true
dtnsim.node[79].app.bundlesNumber = "11,24,10,11,1,9,16,14,2,1,1"
dtnsim.node[79].app.start = "53,44,40,66,81,40,38,67,46,8,66"
dtnsim.node[79].app.destinationEid = "348,342,265,286,360,297,260,27,219,203,75"
dtnsim.node[79].app.size = "500,200,100,100,500,500,50,100,200,100,500"
# Node 80 random traffic
dtnsim.node[80].app.enable = true
dtnsim.node[80].app.bundlesNumber = "4,8,20,20,22,5,1,10,2,6,2"
dtnsim.node[80].app.start = "4,71,54,20,36,22,85,18,92,69,41"
dtnsim.node[80].app.destinationEid = "180,287,112,173,129,21,47,341,78,323,280"
dtnsim.node[80].app.size = "500,50,200,200,200,200,500,50,500,50,100"
# Node 81 random traffic
dtnsim.node[81].app.enable = true
dtnsim.node[81].app.bundlesNumber = "16,18,23,23,1,2,10,7"
dtnsim.node[81].app.start = "47,12,90,27,48,57,15,71"
dtnsim.node[81].app.destinationEid = "68,307,333,327,113,16,51,64"
dtnsim.node[81].app.size = "200,50,500,50,200,50,100,50"
# Node 82 random traffic
dtnsim.node[82].app.enable = true
dtnsim.node[82].app.bundlesNumber = "23,20,3,3,14,11,6,18,2"
dtnsim.node[82].app.start = "35,46,98,87,7,22,54,63,72"
dtnsim.node[82].app.destinationEid = "335,76,170,28,14,230,272,237,1"
dtnsim.node[82].app.size = "200,100,50,200,500,500,500,200,500"
# Node 83 random traffic
dtnsim.node[83].app.enable = true
dtnsim.node[83].app.bundlesNumber = "16,8,15,1,13,22,12,3,1,8,1"
dtnsim.node[83].app.start = "14,61,39,20,96,90,63,56,75,46,83"
dtnsim.node[83].app.destinationEid = "187,190,37,177,147,76,355,216,250,359,40"
dtnsim.node[83].app.size = "100,100,500,50,50,200,50,50,100,200,50"
# Node 84 random traffic
dtnsim.node[84].app.enable = true
dtnsim.node[84].app.bundlesNumber = "11,21,16,9,19,16,2,4,2"
dtnsim.node[84].app.start = "89,74,62,45,62,85,37,21,82"
dtnsim.node[84].app.destinationEid = "318,64,320,223,81,280,358,158,310"
dtnsim.node[84].app.size = "500,200,100,100,50,200,200,100,100"
# Node 85 random traffic
dtnsim.node[85].app.enable = true
dtnsim.node[85].app.bundlesNumber = "8,20,19,5,24,21,2,1"
dtnsim.node[85].app.start = "53,82,45,13,85,29,44,3"
dtnsim.node[85].app.destinationEid = "229,190,15,317,90,79,340,304"
dtnsim.node[85].app.size = "100,200,500,50,500,50,200,500"
# Node 86 random traffic
dtnsim.node[86].app.enable = true
dtnsim.node[86].app.bundlesNumber = "24,6,9,18,14,17,8,1,2,1"
dtnsim.node[86].app.start = "54,40,55,2,93,99,53,63,68,59"
dtnsim.node[86].app.destinationEid = "131,228,241,278,96,293,167,159,207,254"
dtnsim.node[86].app.size = "500,200,200,50,50,100,100,100,500,50"
# Node 87 random traffic
dtnsim.node[87].app.enable = true
dtnsim.node[87].app.bundlesNumber = "24,23,16,10,12,5,5,4,1"
dtnsim.node[87].app.start = "55,41,24,69,7,30,17,39,82"
dtnsim.node[87].app.destinationEid = "5,234,217,215,339,145,311,347,92"
dtnsim.node[87].app.size = "50,50,200,200,100,50,100,500,500"
# Node 88 random traffic
dtnsim.node[88].app.enable = true
dtnsim.node[88].app.bundlesNumber = "2,8,11,3,4,20,4,1,14,19,6,8"
dtnsim.node[88].app.start = "71,64,29,39,93,26,23,94,51,82,100,54"
dtnsim.node[88].app.destinationEid = "17,128,341,319,137,116,57,267,352,56,128,328"
dtnsim.node[88].app.size = "100,200,50,500,500,200,50,500,500,200,200,50"
# Node 89 random traffic
dtnsim.node[89].app.enable = true
dtnsim.node[89].app.bundlesNumber = "14,13,10,21,12,22,3,1,2,2"
dtnsim.node[89].app.start = "38,30,80,61,53,87,57,49,13,17"
dtnsim.node[89].app.destinationEid = "221,210,312,92,173,323,38,234,220,88"
dtnsim.node[89].app.size = "200,100,200,100,100,50,50,500,500,200"
# Node 90 random traffic
dtnsim.node[90].app.enable = true
dtnsim.node[90].app.bundlesNumber = "21,1,25,8,17,10,17,1"
dtnsim.node[90].app.start = "30,30,44,39,62,93,36,10"
dtnsim.node[90].app.destinationEid = "202,225,35,283,237,157,21,61"
dtnsim.node[90].app.size = "100,100,500,100,100,100,50,100"
# Node 91 random traffic
dtnsim.node[91].app.enable = true
dtnsim.node[91].app.bundlesNumber = "11,22,16,5,17,6,12,11"
dtnsim.node[91].app.start = "42,39,45,69,51,77,44,32"
dtnsim.node[91].app.destinationEid = "70,103,50,133,122,19,153,262"
dtnsim.node[91].app.size = "50,500,100,50,100,500,100,100"
# Node 92 random traffic
dtnsim.node[92].app.enable = true
dtnsim.node[92].app.bundlesNumber = "22,5,19,20,7,8,18,1"
dtnsim.node[92].app.start = "11,75,22,98,1,43,8,24"