[General]
network = src.dtnsim										
repeat = 1
allow-object-stealing-on-deletion = true

# Simulation end time
sim-time-limit = 84600s

# Nodes quantity (identifiers (EiDs) matches their index, EiD=0 is ignored)			
dtnsim.nodesNumber = 120
dtnsim.node[*].icon = "satellite"

# Nodes's failure rates
dtnsim.node[*].fault.enable = true
dtnsim.node[*].fault.meanTTF = 40s
dtnsim.node[*].fault.meanTTR = 10s

# Mobility
dtnsim.node[*].hasMobility = true
dtnsim.node[*].noradModule.satIndex = parentIndex()
dtnsim.node[*].noradModule.satName = "sat"
**.updateInterval = 20s
**.numOfSats = 120
**.satPerPlane = 10
**.altitude = 540
**.planes = 12
**.phaseOffset = 7

dtnsim.node[*].dtn.routing = "antop"
dtnsim.node[*].dtn.printRoutingDebug = true

# --- Random Traffic Configuration ---
# Node 1 random traffic
dtnsim.node[1].app.enable = true
dtnsim.node[1].app.bundlesNumber = "1,1,1,1,1,1,1,1,1,1,1,1,1,1,1,1,1,1,1,1,1,1,1,1,1,1,1,1,1,1,1,1,1,1,1,1,1,1,1,1,1,1,1,1,1,1,1,1,1,1,1,1,1,1,1,1,1,1,1,1,1,1,1,1,1,1,1,1,1,1,1,1,1,1,1,1,1,1,1,1,1,1,1,1,1,1,1,1,1,1,1,1,1,1,1,1,1,1,1,1"
dtnsim.node[1].app.start = "6,20,13,1,6,14,4,16,18,19,14,16,6,7,13,6,12,3,14,17,9,20,13,13,6,13,5,14,20,13,20,6,16,1,10,13,6,19,20,1,19,6,11,16,15,7,5,20,15,1,16,1,7,10,12,14,15,11,15,9,20,1,19,16,15,14,19,1,11,8,15,19,14,16,7,11,7,19,2,11,15,20,8,4,1,12,5,8,16,10,2,4,6,2,1,18,12,17,9,6"
dtnsim.node[1].app.destinationEid = "13,21,6,19,75,23,78,64,17,71,2,95,120,115,63,13,100,19,68,95,96,81,37,65,54,72,70,92,120,56,55,51,75,63,114,96,67,37,78,50,46,14,46,29,117,43,110,47,8,79,99,16,73,23,45,15,118,2,62,22,9,32,73,111,106,13,14,111,114,42,73,41,70,8,106,2,30,116,107,81,3,36,41,69,9,25,13,18,72,59,6,53,12,63,18,41,59,52,17,17"
dtnsim.node[1].app.size = "100,200,200,200,200,500,50,50,50,200,500,500,50,200,50,200,100,500,200,500,100,50,100,500,200,100,100,200,100,50,50,100,100,100,50,500,200,50,50,50,50,100,50,50,200,100,50,200,200,50,50,200,100,100,100,50,500,500,200,200,100,100,100,100,100,100,500,200,500,50,100,100,200,100,500,500,200,50,100,100,100,500,50,100,500,200,500,200,500,200,100,50,50,200,50,200,100,500,500,500"
        # Node 2 random traffic
dtnsim.node[2].app.enable = true
dtnsim.node[2].app.bundlesNumber = "1,1,1,1,1,1,1,1,1,1,1,1,1,1,1,1,1,1,1,1,1,1,1,1,1,1,1,1,1,1,1,1,1,1,1,1,1,1,1,1,1,1,1,1,1,1,1,1,1,1,1,1,1,1,1,1,1,1,1,1,1,1,1,1,1,1,1,1,1,1,1,1,1,1,1,1,1,1,1,1,1,1,1,1,1,1,1,1,1,1,1,1,1,1,1,1,1,1,1,1"
dtnsim.node[2].app.start = "6,15,19,8,18,1,17,1,12,16,9,1,15,8,2,12,7,5,14,2,16,20,2,9,13,9,16,17,6,8,6,3,12,20,18,10,10,12,20,17,3,3,9,17,13,12,12,17,12,12,2,10,12,10,16,17,4,10,9,14,10,20,4,16,16,5,3,12,5,18,8,19,20,1,5,5,6,4,14,5,15,15,16,18,3,13,4,12,7,4,14,9,2,15,5,8,6,15,15,17"
dtnsim.node[2].app.destinationEid = "96,107,68,91,56,43,73,43,96,17,109,106,97,99,79,36,17,72,118,22,66,74,52,63,102,120,76,11,13,76,10,35,88,75,69,56,23,55,9,91,75,13,49,49,103,37,42,107,45,116,25,103,96,90,81,42,14,76,30,33,52,85,50,63,22,72,101,25,15,113,23,76,95,6,3,51,91,114,65,63,77,104,102,59,47,116,45,112,113,33,23,35,23,37,67,94,57,76,68,119"
dtnsim.node[2].app.size = "200,100,500,500,500,200,100,100,50,50,500,500,500,200,100,500,100,200,50,100,200,100,100,50,100,200,200,100,500,100,200,500,500,200,50,500,500,200,200,500,500,50,100,200,50,50,100,200,200,50,500,50,200,200,100,200,50,500,100,500,500,200,100,50,100,500,200,500,500,500,100,200,500,100,500,500,500,100,200,100,200,200,200,500,50,200,100,50,200,200,100,100,50,50,50,500,500,100,50,50"
        # Node 3 random traffic
dtnsim.node[3].app.enable = true
dtnsim.node[3].app.bundlesNumber = "1,1,1,1,1,1,1,1,1,1,1,1,1,1,1,1,1,1,1,1,1,1,1,1,1,1,1,1,1,1,1,1,1,1,1,1,1,1,1,1,1,1,1,1,1,1,1,1,1,1,1,1,1,1,1,1,1,1,1,1,1,1,1,1,1,1,1,1,1,1,1,1,1,1,1,1,1,1,1,1,1,1,1,1,1,1,1,1,1,1,1,1,1,1,1,1,1,1,1,1"
dtnsim.node[3].app.start = "18,1,5,2,15,4,3,4,20,13,3,1,8,20,3,14,20,6,8,6,8,3,19,10,15,3,12,11,6,15,15,11,8,4,3,2,7,5,3,8,17,15,20,14,3,3,16,8,1,6,1,12,6,11,7,16,4,2,20,19,13,18,4,19,7,15,10,15,1,9,15,6,6,2,2,19,2,18,18,10,2,18,2,15,10,20,2,6,20,3,10,6,5,6,1,19,4,5,18,12"
dtnsim.node[3].app.destinationEid = "97,44,75,58,74,71,59,44,31,1,81,67,97,74,31,31,83,79,66,32,88,32,59,106,79,37,82,97,4,77,102,54,87,45,71,103,38,11,21,70,11,71,64,58,63,37,50,96,22,54,81,13,77,7,84,91,9,109,62,16,25,96,4,119,40,116,9,67,115,84,81,14,54,62,65,5,69,113,92,38,74,4,31,26,74,69,4,26,39,75,103,30,90,17,28,12,58,118,49,88"
dtnsim.node[3].app.size = "500,500,500,50,50,50,500,50,50,500,500,200,200,100,50,500,200,50,50,500,200,50,100,200,50,50,500,200,200,100,100,100,200,50,50,100,50,500,500,50,500,500,100,200,200,500,50,100,100,200,100,50,100,100,500,200,50,100,500,200,200,500,500,100,500,50,200,200,500,500,50,500,200,100,500,200,200,50,500,200,100,50,200,200,200,100,50,100,200,100,100,100,50,50,50,100,50,50,100,50"
        # Node 4 random traffic
dtnsim.node[4].app.enable = true
dtnsim.node[4].app.bundlesNumber = "1,1,1,1,1,1,1,1,1,1,1,1,1,1,1,1,1,1,1,1,1,1,1,1,1,1,1,1,1,1,1,1,1,1,1,1,1,1,1,1,1,1,1,1,1,1,1,1,1,1,1,1,1,1,1,1,1,1,1,1,1,1,1,1,1,1,1,1,1,1,1,1,1,1,1,1,1,1,1,1,1,1,1,1,1,1,1,1,1,1,1,1,1,1,1,1,1,1,1,1"
dtnsim.node[4].app.start = "11,12,20,16,5,20,19,2,7,18,7,13,7,2,12,4,20,19,17,7,7,11,15,4,13,19,17,5,14,14,17,8,18,1,10,20,13,12,17,15,20,9,19,1,10,9,5,7,8,14,2,5,3,14,5,7,1,3,9,17,17,6,3,9,5,20,14,11,11,8,17,4,15,3,6,7,4,19,14,2,4,15,20,9,12,6,11,11,14,11,12,7,16,13,20,12,20,9,18,17"
dtnsim.node[4].app.destinationEid = "20,45,5,28,94,114,34,95,61,41,91,45,71,17,52,25,8,48,17,83,3,46,68,72,19,62,26,95,24,103,48,14,80,15,52,118,80,69,60,70,102,76,30,72,116,51,30,94,114,108,48,38,93,11,59,24,63,114,69,9,7,106,20,66,17,12,51,14,86,62,2,26,74,48,56,43,92,45,75,36,3,78,40,27,53,108,61,115,98,59,79,31,48,60,80,61,19,104,59,105"
dtnsim.node[4].app.size = "500,200,50,500,50,500,100,50,50,500,100,50,500,100,100,100,200,200,500,100,100,50,500,200,200,200,50,50,50,100,50,100,100,50,100,200,500,500,50,500,200,100,200,200,50,100,200,500,50,50,100,500,100,50,100,50,500,100,500,50,50,50,50,200,500,200,50,50,200,100,200,50,50,500,200,200,500,200,500,200,500,100,500,50,500,500,500,100,100,500,100,50,500,50,200,500,200,500,500,500"
        # Node 5 random traffic
dtnsim.node[5].app.enable = true
dtnsim.node[5].app.bundlesNumber = "1,1,1,1,1,1,1,1,1,1,1,1,1,1,1,1,1,1,1,1,1,1,1,1,1,1,1,1,1,1,1,1,1,1,1,1,1,1,1,1,1,1,1,1,1,1,1,1,1,1,1,1,1,1,1,1,1,1,1,1,1,1,1,1,1,1,1,1,1,1,1,1,1,1,1,1,1,1,1,1,1,1,1,1,1,1,1,1,1,1,1,1,1,1,1,1,1,1,1,1"
dtnsim.node[5].app.start = "7,13,4,20,10,19,4,9,14,12,1,7,12,12,5,14,18,15,2,16,5,14,11,1,12,20,16,13,12,12,1,10,4,15,9,10,13,1,1,18,13,20,12,1,8,19,5,4,14,7,10,18,18,11,4,4,20,3,11,10,11,3,7,16,17,6,15,4,8,20,15,18,16,15,17,6,1,7,1,9,8,9,6,4,7,7,20,20,10,1,17,17,18,3,19,3,7,2,16,18"
dtnsim.node[5].app.destinationEid = "80,92,76,117,37,105,20,8,1,57,111,30,85,24,3,37,82,12,110,107,91,61,55,93,92,120,36,51,53,1,69,72,87,117,120,33,65,26,43,12,90,61,57,105,80,75,42,9,95,7,50,72,53,88,66,93,43,6,34,32,82,3,32,118,37,80,95,27,98,97,37,109,36,98,48,84,76,89,110,20,107,101,46,39,77,39,104,71,10,96,1,11,74,27,82,3,111,27,120,42"
dtnsim.node[5].app.size = "100,200,100,50,50,100,200,200,100,50,100,100,100,200,100,50,50,500,50,100,50,50,100,100,200,50,100,100,200,500,500,500,200,200,200,200,100,100,100,500,100,50,50,50,100,500,100,100,100,500,50,100,500,200,50,200,500,200,100,200,500,200,100,50,50,500,100,200,200,500,100,100,100,100,200,100,200,200,50,200,500,50,50,200,500,500,200,200,50,100,500,500,500,50,500,500,50,100,500,500"
        # Node 6 random traffic
dtnsim.node[6].app.enable = true
dtnsim.node[6].app.bundlesNumber = "1,1,1,1,1,1,1,1,1,1,1,1,1,1,1,1,1,1,1,1,1,1,1,1,1,1,1,1,1,1,1,1,1,1,1,1,1,1,1,1,1,1,1,1,1,1,1,1,1,1,1,1,1,1,1,1,1,1,1,1,1,1,1,1,1,1,1,1,1,1,1,1,1,1,1,1,1,1,1,1,1,1,1,1,1,1,1,1,1,1,1,1,1,1,1,1,1,1,1,1"
dtnsim.node[6].app.start = "13,20,17,7,19,19,9,19,12,7,7,11,14,6,20,9,5,1,15,19,18,5,7,14,17,1,10,9,16,10,2,6,17,8,11,12,11,5,11,11,14,3,16,15,8,11,18,11,13,18,16,17,3,2,8,12,20,18,14,15,1,5,18,4,14,5,8,15,4,20,15,13,12,15,10,14,4,13,16,13,6,12,5,20,16,11,14,17,6,9,10,4,15,8,17,19,13,10,5,18"
dtnsim.node[6].app.destinationEid = "68,5,32,14,68,70,87,107,49,52,80,17,62,44,17,62,47,27,7,109,22,28,75,61,34,111,51,5,99,4,42,59,105,68,67,71,55,93,34,120,119,34,103,72,41,115,104,9,93,115,118,50,54,13,18,10,103,48,51,22,91,13,107,94,50,73,27,39,63,39,45,86,30,62,49,93,21,2,39,11,119,69,5,61,53,99,11,37,44,73,94,18,78,52,61,78,94,13,66,52"
dtnsim.node[6].app.size = "200,500,100,200,100,500,100,500,100,50,50,100,50,100,500,200,50,100,500,200,500,200,50,50,100,500,500,100,50,100,100,100,200,200,200,500,200,50,100,50,500,200,100,200,100,200,50,500,200,50,500,100,500,500,100,200,200,100,50,200,100,500,200,100,500,50,100,200,100,50,500,500,50,200,50,500,500,100,200,200,200,200,500,100,100,500,100,50,50,50,100,50,100,100,500,200,50,500,50,500"
        # Node 7 random traffic
dtnsim.node[7].app.enable = true
dtnsim.node[7].app.bundlesNumber = "1,1,1,1,1,1,1,1,1,1,1,1,1,1,1,1,1,1,1,1,1,1,1,1,1,1,1,1,1,1,1,1,1,1,1,1,1,1,1,1,1,1,1,1,1,1,1,1,1,1,1,1,1,1,1,1,1,1,1,1,1,1,1,1,1,1,1,1,1,1,1,1,1,1,1,1,1,1,1,1,1,1,1,1,1,1,1,1,1,1,1,1,1,1,1,1,1,1,1,1"
dtnsim.node[7].app.start = "10,19,4,13,19,1,19,19,18,16,8,17,9,2,5,4,18,19,1,11,10,19,3,3,17,3,12,9,4,13,5,9,14,4,3,15,10,19,14,16,14,15,16,5,11,18,3,17,12,6,15,4,2,19,10,20,14,7,7,6,11,2,11,5,5,12,19,16,3,18,11,19,10,17,8,20,13,13,19,5,10,19,10,6,19,1,5,7,2,19,20,20,20,8,15,12,5,7,7,3"
dtnsim.node[7].app.destinationEid = "39,99,89,88,40,50,92,106,96,16,50,113,16,31,32,76,53,59,61,98,47,26,31,27,86,68,64,59,99,22,100,32,18,42,44,21,11,10,4,114,83,89,117,87,91,33,67,115,38,110,31,64,83,86,53,116,47,87,1,82,35,49,80,71,19,66,55,65,18,10,96,48,98,49,65,5,20,110,96,26,24,118,2,40,69,86,110,53,72,77,87,22,11,12,34,58,94,35,92,17"
dtnsim.node[7].app.size = "100,50,200,50,50,50,50,200,500,50,200,100,200,50,100,500,100,50,200,100,200,50,500,50,100,500,50,50,500,100,50,200,50,200,50,100,200,500,50,500,500,100,200,50,100,50,500,200,200,100,200,500,500,100,100,200,100,500,200,100,500,200,200,500,100,200,100,100,200,50,200,50,50,100,100,500,200,500,200,50,500,100,500,500,50,100,200,100,100,500,200,200,100,200,500,200,200,50,500,500"
        # Node 8 random traffic
dtnsim.node[8].app.enable = true
dtnsim.node[8].app.bundlesNumber = "1,1,1,1,1,1,1,1,1,1,1,1,1,1,1,1,1,1,1,1,1,1,1,1,1,1,1,1,1,1,1,1,1,1,1,1,1,1,1,1,1,1,1,1,1,1,1,1,1,1,1,1,1,1,1,1,1,1,1,1,1,1,1,1,1,1,1,1,1,1,1,1,1,1,1,1,1,1,1,1,1,1,1,1,1,1,1,1,1,1,1,1,1,1,1,1,1,1,1,1"
dtnsim.node[8].app.start = "10,5,18,20,6,15,16,4,18,20,20,1,13,7,20,7,3,19,9,5,20,8,4,3,11,12,12,13,1,17,9,18,7,16,15,15,5,18,4,16,14,10,18,2,10,16,13,10,2,13,11,16,10,17,20,11,3,15,10,15,1,2,4,16,20,1,6,18,14,17,11,15,12,13,1,7,4,16,15,20,16,11,9,2,3,7,4,19,10,8,19,3,1,8,13,2,8,6,14,9"
dtnsim.node[8].app.destinationEid = "66,101,103,119,119,16,47,61,56,37,85,38,25,91,3,17,113,3,115,79,57,81,75,51,69,95,92,83,31,82,70,114,30,104,104,44,51,92,78,59,83,51,104,40,22,111,71,26,51,109,34,41,24,108,27,64,94,50,85,58,87,12,53,57,33,19,31,36,90,19,113,28,46,49,19,87,54,104,87,27,117,13,12,39,92,105,87,69,85,12,93,89,112,115,82,101,15,45,1,16"
dtnsim.node[8].app.size = "100,50,50,50,200,100,100,500,200,100,50,100,100,100,500,500,500,200,200,100,100,200,100,100,50,200,500,50,200,200,200,50,50,100,500,500,200,100,200,500,50,200,50,500,200,50,50,200,200,50,500,500,200,50,500,50,200,50,50,100,200,200,200,500,200,50,200,200,50,100,100,500,500,100,500,50,500,50,100,200,100,500,50,100,50,200,50,100,500,50,100,100,100,100,100,500,100,50,200,200"
        # Node 9 random traffic
dtnsim.node[9].app.enable = true
dtnsim.node[9].app.bundlesNumber = "1,1,1,1,1,1,1,1,1,1,1,1,1,1,1,1,1,1,1,1,1,1,1,1,1,1,1,1,1,1,1,1,1,1,1,1,1,1,1,1,1,1,1,1,1,1,1,1,1,1,1,1,1,1,1,1,1,1,1,1,1,1,1,1,1,1,1,1,1,1,1,1,1,1,1,1,1,1,1,1,1,1,1,1,1,1,1,1,1,1,1,1,1,1,1,1,1,1,1,1"
dtnsim.node[9].app.start = "13,11,10,2,12,19,1,17,20,10,6,14,15,8,8,5,1,2,12,8,10,20,5,18,10,7,19,11,19,14,4,7,9,15,14,20,18,5,13,15,12,10,10,8,12,10,5,12,20,17,3,15,5,2,3,11,19,18,7,19,9,8,15,17,5,16,13,4,18,17,4,16,3,8,7,8,20,7,8,18,1,19,9,6,8,7,12,12,2,5,19,2,13,8,20,16,12,9,11,12"
dtnsim.node[9].app.destinationEid = "64,101,102,8,40,40,55,19,99,25,110,38,68,59,27,23,13,119,35,36,86,99,112,4,32,78,31,48,107,2,6,38,61,93,109,25,16,48,106,120,25,84,77,55,95,21,108,80,64,54,27,26,67,94,97,35,17,115,42,16,56,56,57,108,53,90,52,107,102,11,26,120,70,96,82,26,68,70,57,103,70,32,7,2,30,27,25,74,109,14,36,47,98,67,116,70,4,67,4,110"
dtnsim.node[9].app.size = "200,100,500,100,500,200,100,50,500,100,100,100,200,500,50,200,200,500,100,200,200,200,50,200,100,500,200,500,100,50,100,500,100,100,500,500,50,50,200,100,500,200,500,50,50,50,200,200,200,50,100,100,100,100,100,500,500,50,200,500,200,100,100,100,500,50,500,100,100,200,500,50,500,200,500,500,200,50,500,500,50,200,100,500,50,100,100,500,100,100,100,500,100,100,50,50,500,200,50,500"
        # Node 10 random traffic
dtnsim.node[10].app.enable = true
dtnsim.node[10].app.bundlesNumber = "1,1,1,1,1,1,1,1,1,1,1,1,1,1,1,1,1,1,1,1,1,1,1,1,1,1,1,1,1,1,1,1,1,1,1,1,1,1,1,1,1,1,1,1,1,1,1,1,1,1,1,1,1,1,1,1,1,1,1,1,1,1,1,1,1,1,1,1,1,1,1,1,1,1,1,1,1,1,1,1,1,1,1,1,1,1,1,1,1,1,1,1,1,1,1,1,1,1,1,1"
dtnsim.node[10].app.start = "4,7,15,9,19,13,10,15,12,20,7,20,9,2,19,2,20,1,17,5,15,12,1,12,20,4,15,1,11,12,8,13,1,20,11,14,3,14,14,5,2,10,12,17,20,8,7,9,8,4,17,2,17,4,19,7,3,16,6,20,12,5,5,1,9,17,9,15,11,20,15,16,6,11,6,6,19,4,12,16,5,1,19,10,2,8,16,13,3,16,11,4,18,9,17,4,15,3,9,14"
dtnsim.node[10].app.destinationEid = "13,74,84,105,90,90,48,36,75,27,85,44,114,88,101,42,21,53,93,93,26,80,76,20,72,97,66,100,42,11,26,42,2,66,7,46,43,17,102,12,32,2,33,120,38,21,27,1,106,114,71,89,102,36,71,100,102,64,30,31,30,3,73,120,30,101,71,79,84,50,87,72,35,66,102,37,15,53,104,42,105,2,6,119,51,89,70,101,74,22,5,95,64,14,52,60,71,20,20,115"
dtnsim.node[10].app.size = "500,200,500,500,100,500,100,100,100,100,100,200,100,100,100,500,50,50,200,100,200,200,500,100,500,200,200,50,50,200,50,100,200,100,100,50,500,100,100,500,500,500,50,500,100,500,100,100,50,100,100,200,200,500,500,500,500,100,500,100,100,200,100,50,200,100,200,200,500,500,50,200,200,500,100,100,50,50,500,100,500,500,200,50,100,500,100,50,200,500,200,200,500,500,100,50,500,100,500,500"
        # Node 11 random traffic
dtnsim.node[11].app.enable = true
dtnsim.node[11].app.bundlesNumber = "1,1,1,1,1,1,1,1,1,1,1,1,1,1,1,1,1,1,1,1,1,1,1,1,1,1,1,1,1,1,1,1,1,1,1,1,1,1,1,1,1,1,1,1,1,1,1,1,1,1,1,1,1,1,1,1,1,1,1,1,1,1,1,1,1,1,1,1,1,1,1,1,1,1,1,1,1,1,1,1,1,1,1,1,1,1,1,1,1,1,1,1,1,1,1,1,1,1,1,1"
dtnsim.node[11].app.start = "17,12,13,16,16,17,1,20,9,5,11,1,4,3,16,16,17,18,13,11,10,20,17,7,1,5,20,19,2,2,8,3,10,16,12,9,3,13,13,1,6,16,7,1,19,1,2,17,14,6,3,3,2,20,14,8,13,18,1,15,3,6,9,7,5,14,11,8,20,16,11,20,9,9,4,7,4,1,14,13,6,18,4,18,1,12,3,4,18,11,12,2,12,14,18,4,7,13,1,12"
dtnsim.node[11].app.destinationEid = "3,50,22,52,19,46,107,22,47,99,71,41,86,8,84,103,23,24,45,116,109,32,69,54,20,82,108,120,37,37,57,22,55,91,46,52,5,62,101,96,10,100,51,101,97,61,79,37,48,23,42,83,107,115,59,22,111,69,86,14,40,15,119,114,89,73,106,8,71,39,104,114,58,88,61,70,54,79,46,94,46,39,20,101,73,92,60,40,54,82,117,118,67,90,103,30,108,81,31,84"
dtnsim.node[11].app.size = "500,500,500,100,200,100,200,50,100,500,500,500,50,100,100,50,200,100,500,100,100,500,100,50,50,200,200,50,100,200,500,50,100,100,50,500,100,200,50,50,200,200,500,200,100,500,50,50,200,50,500,500,500,50,50,100,50,50,100,50,100,50,200,100,50,100,50,100,500,50,500,100,100,200,100,50,100,100,50,50,100,100,50,50,100,200,100,200,50,100,500,100,500,500,100,50,200,500,500,50"
        # Node 12 random traffic
dtnsim.node[12].app.enable = true
dtnsim.node[12].app.bundlesNumber = "1,1,1,1,1,1,1,1,1,1,1,1,1,1,1,1,1,1,1,1,1,1,1,1,1,1,1,1,1,1,1,1,1,1,1,1,1,1,1,1,1,1,1,1,1,1,1,1,1,1,1,1,1,1,1,1,1,1,1,1,1,1,1,1,1,1,1,1,1,1,1,1,1,1,1,1,1,1,1,1,1,1,1,1,1,1,1,1,1,1,1,1,1,1,1,1,1,1,1,1"
dtnsim.node[12].app.start = "12,17,17,19,20,17,5,11,11,15,4,16,5,9,5,19,2,4,9,6,10,10,14,13,4,4,5,16,20,2,15,11,11,4,9,1,5,13,10,1,2,19,13,15,2,20,5,3,19,20,8,18,17,20,6,10,2,3,17,13,20,7,17,11,18,17,6,10,19,2,17,18,16,12,9,17,13,10,4,3,8,13,9,20,4,19,3,13,13,18,3,15,17,6,18,10,19,7,4,7"
dtnsim.node[12].app.destinationEid = "4,37,43,118,50,96,111,91,15,61,22,95,46,114,23,85,68,94,9,86,18,48,38,27,97,9,74,71,109,58,4,89,114,77,67,56,34,51,110,13,83,112,98,73,48,47,36,11,120,103,18,17,95,45,106,11,43,94,6,83,28,26,52,3,95,55,57,73,47,2,17,111,64,56,95,76,103,80,35,20,88,84,50,93,44,63,71,21,111,83,45,27,58,93,32,93,58,95,8,67"
dtnsim.node[12].app.size = "50,200,100,100,100,100,50,50,50,500,100,50,50,500,100,100,500,100,200,200,200,500,200,100,100,500,500,100,50,200,50,500,100,50,50,200,50,200,100,500,50,50,500,100,200,200,500,500,100,100,500,200,500,100,50,500,50,500,200,50,100,100,100,50,100,100,200,100,200,500,50,50,100,200,100,100,100,50,50,50,200,100,50,500,200,200,50,100,50,100,50,200,200,500,200,100,500,200,50,200"
        # Node 13 random traffic
dtnsim.node[13].app.enable = true
dtnsim.node[13].app.bundlesNumber = "1,1,1,1,1,1,1,1,1,1,1,1,1,1,1,1,1,1,1,1,1,1,1,1,1,1,1,1,1,1,1,1,1,1,1,1,1,1,1,1,1,1,1,1,1,1,1,1,1,1,1,1,1,1,1,1,1,1,1,1,1,1,1,1,1,1,1,1,1,1,1,1,1,1,1,1,1,1,1,1,1,1,1,1,1,1,1,1,1,1,1,1,1,1,1,1,1,1,1,1"
dtnsim.node[13].app.start = "10,9,7,16,14,10,1,5,4,1,14,13,18,1,20,14,5,7,16,9,16,2,6,20,14,17,8,14,7,8,5,7,10,12,4,2,3,18,14,5,3,13,18,4,1,5,16,13,17,2,5,18,11,12,12,1,9,12,3,5,9,13,13,5,20,5,2,17,15,18,1,9,1,2,12,11,15,14,20,7,13,6,14,5,17,17,18,7,4,12,20,3,1,4,17,11,17,9,6,5"
dtnsim.node[13].app.destinationEid = "101,47,91,92,49,3,11,38,78,24,98,87,48,48,104,97,119,113,120,66,65,109,93,45,107,95,91,68,26,35,92,68,44,81,33,18,6,52,46,5,3,33,15,68,14,84,21,111,114,6,2,91,62,8,24,75,32,19,101,50,79,35,107,75,92,76,33,11,84,61,28,100,2,32,103,3,92,110,66,91,50,34,102,73,45,66,55,5,101,34,56,58,99,106,96,83,103,6,72,71"
dtnsim.node[13].app.size = "100,100,200,500,50,500,50,50,100,500,500,50,50,500,500,500,50,200,100,500,500,500,100,200,50,500,200,200,100,100,200,500,500,100,500,100,500,200,200,100,50,500,200,100,50,200,500,100,500,500,500,100,500,500,500,500,50,200,200,500,100,500,50,50,200,100,200,50,200,200,100,200,200,50,50,100,100,200,200,200,50,500,200,100,200,500,500,500,200,100,100,200,50,100,100,200,50,50,200,500"
        # Node 14 random traffic
dtnsim.node[14].app.enable = true
dtnsim.node[14].app.bundlesNumber = "1,1,1,1,1,1,1,1,1,1,1,1,1,1,1,1,1,1,1,1,1,1,1,1,1,1,1,1,1,1,1,1,1,1,1,1,1,1,1,1,1,1,1,1,1,1,1,1,1,1,1,1,1,1,1,1,1,1,1,1,1,1,1,1,1,1,1,1,1,1,1,1,1,1,1,1,1,1,1,1,1,1,1,1,1,1,1,1,1,1,1,1,1,1,1,1,1,1,1,1"
dtnsim.node[14].app.start = "18,16,1,15,3,4,20,1,7,17,19,5,17,19,8,14,1,4,14,8,8,10,19,20,4,7,18,18,9,1,15,5,20,3,16,8,9,6,15,13,5,4,17,13,11,13,17,6,6,11,16,9,12,2,17,10,19,15,18,17,12,15,16,5,7,13,1,11,11,15,8,20,4,9,15,10,11,20,9,10,3,2,16,17,11,10,10,18,17,14,11,7,13,7,17,3,11,6,5,18"
dtnsim.node[14].app.destinationEid = "98,50,78,42,44,90,32,96,45,47,99,50,43,116,44,61,39,63,46,62,34,115,56,23,43,22,86,90,88,21,93,26,53,96,36,47,104,91,2,118,61,43,71,42,91,99,75,107,10,44,55,1,71,109,34,47,107,49,50,71,51,94,68,57,92,62,8,77,21,17,47,7,90,114,72,13,24,82,106,102,102,88,97,114,17,100,105,21,111,91,103,115,3,119,32,109,22,70,94,37"
dtnsim.node[14].app.size = "100,50,50,100,50,200,200,200,200,500,500,200,500,200,100,50,200,500,50,200,500,50,500,200,50,100,100,200,100,200,500,100,100,100,100,100,200,200,100,100,500,100,500,500,100,500,100,50,50,500,100,50,100,200,200,200,200,50,500,100,50,200,500,50,500,500,50,200,500,500,50,100,50,200,100,100,100,200,200,50,50,500,500,200,50,50,50,500,50,100,100,100,200,50,500,100,200,100,50,50"
        # Node 15 random traffic
dtnsim.node[15].app.enable = true
dtnsim.node[15].app.bundlesNumber = "1,1,1,1,1,1,1,1,1,1,1,1,1,1,1,1,1,1,1,1,1,1,1,1,1,1,1,1,1,1,1,1,1,1,1,1,1,1,1,1,1,1,1,1,1,1,1,1,1,1,1,1,1,1,1,1,1,1,1,1,1,1,1,1,1,1,1,1,1,1,1,1,1,1,1,1,1,1,1,1,1,1,1,1,1,1,1,1,1,1,1,1,1,1,1,1,1,1,1,1"
dtnsim.node[15].app.start = "11,14,4,9,9,10,5,12,1,19,11,7,3,20,20,7,20,1,4,10,6,3,12,2,7,6,17,6,9,9,14,4,17,3,6,8,11,4,9,18,8,12,11,12,13,11,8,12,8,10,15,14,18,19,2,20,12,19,17,2,3,5,4,19,20,9,12,5,1,18,12,15,14,9,8,4,18,8,18,3,20,4,7,7,2,16,12,11,3,3,3,9,6,1,7,10,20,10,18,19"
dtnsim.node[15].app.destinationEid = "64,32,3,115,27,1,22,4,76,116,46,56,1,43,111,73,63,89,97,65,34,78,6,26,62,95,7,49,117,101,97,12,44,77,19,9,22,76,57,76,48,98,51,88,46,72,63,20,78,111,25,57,3,78,113,2,41,53,21,35,80,83,41,5,100,40,114,110,31,65,80,118,75,103,59,96,43,41,18,43,17,43,58,11,105,64,71,119,112,71,120,7,47,104,99,41,62,87,74,61"
dtnsim.node[15].app.size = "100,100,200,200,200,50,500,200,50,500,500,50,50,500,500,50,200,100,50,50,100,500,100,200,500,100,500,50,50,50,200,200,500,100,500,100,200,500,50,200,50,500,100,50,100,100,50,200,50,200,50,500,100,500,200,50,100,50,100,100,50,100,200,50,500,50,500,50,500,500,500,50,50,200,500,500,50,200,100,100,100,500,500,500,200,100,200,200,100,200,200,50,100,50,200,50,500,50,200,50"
        # Node 16 random traffic
dtnsim.node[16].app.enable = true
dtnsim.node[16].app.bundlesNumber = "1,1,1,1,1,1,1,1,1,1,1,1,1,1,1,1,1,1,1,1,1,1,1,1,1,1,1,1,1,1,1,1,1,1,1,1,1,1,1,1,1,1,1,1,1,1,1,1,1,1,1,1,1,1,1,1,1,1,1,1,1,1,1,1,1,1,1,1,1,1,1,1,1,1,1,1,1,1,1,1,1,1,1,1,1,1,1,1,1,1,1,1,1,1,1,1,1,1,1,1"
dtnsim.node[16].app.start = "6,15,2,2,1,9,16,11,1,4,6,1,10,13,19,17,18,4,2,10,6,14,5,2,19,19,8,19,13,12,13,16,16,17,14,12,19,17,13,15,13,3,13,8,14,2,1,15,1,9,9,5,4,15,9,15,17,2,12,16,5,15,2,8,20,6,10,8,19,18,9,19,20,8,2,14,9,11,13,18,17,17,8,7,10,18,4,12,5,1,20,14,10,4,20,4,5,3,12,15"
dtnsim.node[16].app.destinationEid = "92,76,120,58,104,32,20,65,38,120,18,98,7,63,78,95,1,48,68,34,37,89,100,64,94,15,53,76,110,13,85,80,112,36,76,19,67,51,94,42,86,59,38,113,51,54,10,89,78,97,13,12,106,114,99,3,64,87,40,116,84,77,105,88,80,68,52,68,96,82,86,41,96,37,117,102,59,25,115,37,99,107,49,27,7,112,83,19,2,109,73,94,26,15,13,112,19,113,61,19"
dtnsim.node[16].app.size = "200,50,500,50,500,500,200,100,100,200,200,500,200,50,200,500,50,500,500,200,50,100,500,100,100,500,500,100,100,500,500,500,50,500,100,500,50,50,200,200,100,100,50,50,500,100,100,500,100,100,100,500,50,50,200,50,200,50,100,500,50,50,200,500,500,200,500,500,200,500,50,200,500,200,200,200,500,100,500,50,100,500,500,50,500,50,50,200,200,100,50,100,100,100,100,200,100,500,50,500"
        # Node 17 random traffic
dtnsim.node[17].app.enable = true
dtnsim.node[17].app.bundlesNumber = "1,1,1,1,1,1,1,1,1,1,1,1,1,1,1,1,1,1,1,1,1,1,1,1,1,1,1,1,1,1,1,1,1,1,1,1,1,1,1,1,1,1,1,1,1,1,1,1,1,1,1,1,1,1,1,1,1,1,1,1,1,1,1,1,1,1,1,1,1,1,1,1,1,1,1,1,1,1,1,1,1,1,1,1,1,1,1,1,1,1,1,1,1,1,1,1,1,1,1,1"
dtnsim.node[17].app.start = "8,9,9,15,10,17,18,10,20,11,16,15,18,18,6,19,5,17,15,3,18,7,4,13,12,2,3,17,2,8,1,4,15,12,5,15,4,5,4,14,12,10,19,8,19,9,7,20,4,11,14,4,14,6,2,10,13,20,19,14,16,20,18,6,3,20,14,18,4,13,18,3,15,7,7,20,1,2,8,1,12,5,3,2,5,4,6,3,19,1,18,6,15,3,7,13,18,14,12,13"
dtnsim.node[17].app.destinationEid = "37,61,46,101,81,95,52,40,65,109,28,42,107,75,1,78,96,41,63,52,49,26,79,79,120,92,108,109,39,5,96,51,50,30,45,111,117,14,72,96,110,54,23,18,81,79,58,42,2,2,30,24,28,90,15,52,31,83,40,90,118,48,89,51,15,92,92,99,20,107,106,49,91,34,79,51,54,41,91,107,67,69,1,69,14,3,117,69,115,67,109,118,22,71,56,112,79,40,40,13"
dtnsim.node[17].app.size = "50,200,500,200,50,100,100,200,100,500,500,100,50,200,500,50,50,200,200,500,100,500,500,100,500,500,100,100,100,500,200,100,100,50,50,50,100,50,50,500,100,200,500,50,500,200,500,100,50,100,500,200,500,50,200,50,50,200,500,200,500,50,200,100,100,200,50,500,50,50,200,100,50,500,50,50,200,50,200,50,100,50,100,500,200,500,50,500,100,50,200,200,50,500,100,100,500,200,500,200"
        # Node 18 random traffic
dtnsim.node[18].app.enable = true
dtnsim.node[18].app.bundlesNumber = "1,1,1,1,1,1,1,1,1,1,1,1,1,1,1,1,1,1,1,1,1,1,1,1,1,1,1,1,1,1,1,1,1,1,1,1,1,1,1,1,1,1,1,1,1,1,1,1,1,1,1,1,1,1,1,1,1,1,1,1,1,1,1,1,1,1,1,1,1,1,1,1,1,1,1,1,1,1,1,1,1,1,1,1,1,1,1,1,1,1,1,1,1,1,1,1,1,1,1,1"
dtnsim.node[18].app.start = "9,10,11,15,17,5,13,1,16,17,20,14,7,19,6,19,18,18,3,13,20,7,14,9,13,8,14,10,19,11,10,12,6,17,19,14,17,4,20,2,4,13,4,11,18,14,3,20,5,14,18,3,14,9,8,14,10,15,20,20,8,2,6,13,16,10,10,15,6,12,11,18,10,6,3,10,9,13,20,6,19,15,4,3,3,15,9,12,10,8,16,12,13,5,13,4,8,5,8,1"
dtnsim.node[18].app.destinationEid = "74,83,10,111,113,8,2,90,45,8,11,56,61,60,22,41,47,38,86,54,20,99,17,20,70,50,35,34,117,31,113,110,99,33,114,36,9,110,83,9,33,14,44,96,107,9,1,19,74,36,46,79,119,28,116,45,78,63,5,37,23,66,20,45,108,119,31,19,104,75,1,25,115,99,84,64,34,20,100,87,101,12,37,83,46,109,74,92,82,65,3,109,68,109,42,105,46,3,102,7"
dtnsim.node[18].app.size = "500,500,500,500,100,200,200,100,100,200,200,200,50,200,500,500,200,50,50,500,500,200,50,500,100,50,50,200,100,50,50,500,100,200,100,50,50,200,500,50,50,100,50,100,100,50,100,500,50,50,50,50,50,500,50,500,500,50,50,200,200,100,100,50,50,100,500,50,100,500,200,50,500,100,500,100,500,50,500,100,200,200,500,500,500,500,500,100,500,200,100,50,100,200,500,100,200,100,500,200"
        # Node 19 random traffic
dtnsim.node[19].app.enable = true
dtnsim.node[19].app.bundlesNumber = "1,1,1,1,1,1,1,1,1,1,1,1,1,1,1,1,1,1,1,1,1,1,1,1,1,1,1,1,1,1,1,1,1,1,1,1,1,1,1,1,1,1,1,1,1,1,1,1,1,1,1,1,1,1,1,1,1,1,1,1,1,1,1,1,1,1,1,1,1,1,1,1,1,1,1,1,1,1,1,1,1,1,1,1,1,1,1,1,1,1,1,1,1,1,1,1,1,1,1,1"
dtnsim.node[19].app.start = "18,12,10,20,10,14,20,14,9,15,8,15,9,2,20,4,11,1,19,11,19,15,4,8,14,3,13,2,6,12,17,15,14,9,16,5,10,18,6,7,2,9,20,12,3,8,16,11,1,7,17,13,13,8,9,17,5,9,10,4,10,13,12,6,5,11,12,3,10,19,11,1,18,12,14,18,13,19,5,4,16,9,14,9,2,16,4,20,19,16,5,6,18,4,15,4,12,13,20,10"
dtnsim.node[19].app.destinationEid = "113,31,62,107,40,87,119,88,89,64,11,90,84,36,96,84,60,28,41,77,50,83,23,65,21,63,68,26,76,8,69,44,97,12,42,38,65,6,78,47,9,27,113,74,53,36,25,24,48,109,88,105,44,25,49,38,93,79,12,18,17,7,112,11,55,83,12,106,49,58,40,26,89,81,39,46,95,92,22,80,58,57,51,107,43,106,91,58,78,10,55,54,56,5,80,87,5,90,21,60"
dtnsim.node[19].app.size = "200,500,50,200,100,500,500,200,50,500,100,50,100,200,500,50,50,100,200,50,500,50,100,500,100,50,500,50,500,100,500,500,100,200,50,50,500,500,200,100,500,50,500,200,100,100,50,100,100,100,100,200,50,200,200,100,100,100,200,200,100,100,200,100,100,200,200,50,50,50,50,50,500,50,100,200,500,50,200,100,200,50,50,500,500,100,50,100,500,100,200,500,200,100,50,200,200,200,200,200"
        # Node 20 random traffic
dtnsim.node[20].app.enable = true
dtnsim.node[20].app.bundlesNumber = "1,1,1,1,1,1,1,1,1,1,1,1,1,1,1,1,1,1,1,1,1,1,1,1,1,1,1,1,1,1,1,1,1,1,1,1,1,1,1,1,1,1,1,1,1,1,1,1,1,1,1,1,1,1,1,1,1,1,1,1,1,1,1,1,1,1,1,1,1,1,1,1,1,1,1,1,1,1,1,1,1,1,1,1,1,1,1,1,1,1,1,1,1,1,1,1,1,1,1,1"
dtnsim.node[20].app.start = "19,12,19,16,19,6,11,12,2,20,18,3,17,9,17,5,20,2,1,20,7,12,18,16,18,4,5,20,20,13,12,6,12,15,6,12,13,7,6,1,1,20,13,9,12,3,20,15,14,11,9,16,5,8,4,15,12,5,14,6,14,2,3,1,1,14,2,9,13,16,2,4,20,3,1,14,16,10,19,10,11,12,15,2,19,12,5,4,17,16,3,20,15,16,8,16,14,18,10,6"
dtnsim.node[20].app.destinationEid = "27,42,78,64,77,113,5,46,11,81,50,109,47,95,7,106,28,88,77,70,89,38,42,22,26,61,5,9,81,110,98,103,93,90,89,41,55,69,82,98,88,16,101,6,116,51,5,33,95,32,37,69,52,28,51,46,14,118,13,6,25,12,95,45,84,65,49,95,40,110,6,103,74,113,57,16,6,65,78,78,102,54,119,117,26,107,114,36,18,6,24,58,30,49,102,36,41,85,60,80"
dtnsim.node[20].app.size = "200,500,500,500,100,200,100,200,500,200,100,200,50,100,500,100,500,200,100,50,200,200,200,100,50,500,50,200,500,100,200,200,200,500,100,100,500,50,100,50,100,500,50,50,200,100,500,500,100,50,200,100,200,50,500,50,200,500,500,50,500,50,50,200,100,200,200,100,200,500,50,100,100,100,100,500,50,500,200,500,500,50,50,500,200,500,200,200,500,100,100,500,500,100,500,50,500,200,50,50"
        # Node 21 random traffic
dtnsim.node[21].app.enable = true
dtnsim.node[21].app.bundlesNumber = "1,1,1,1,1,1,1,1,1,1,1,1,1,1,1,1,1,1,1,1,1,1,1,1,1,1,1,1,1,1,1,1,1,1,1,1,1,1,1,1,1,1,1,1,1,1,1,1,1,1,1,1,1,1,1,1,1,1,1,1,1,1,1,1,1,1,1,1,1,1,1,1,1,1,1,1,1,1,1,1,1,1,1,1,1,1,1,1,1,1,1,1,1,1,1,1,1,1,1,1"
dtnsim.node[21].app.start = "13,2,6,2,16,12,2,14,20,12,2,3,12,2,7,12,11,18,15,7,11,18,17,20,17,9,18,9,16,12,8,19,15,6,8,5,17,12,7,2,4,7,12,12,15,2,8,12,19,10,17,14,9,18,19,7,17,18,20,9,20,18,6,17,12,13,16,4,2,16,10,1,10,5,6,20,8,1,3,18,2,19,20,16,5,19,13,20,13,2,9,3,12,5,15,2,17,12,15,2"
dtnsim.node[21].app.destinationEid = "56,13,51,35,48,45,69,18,120,84,57,48,42,64,96,62,48,10,72,2,50,15,92,22,51,60,11,14,5,104,43,95,63,89,14,89,64,68,5,17,102,57,9,90,116,79,94,66,53,55,46,81,70,57,75,92,80,101,69,84,73,7,95,100,77,16,33,96,36,14,16,67,56,2,113,63,80,32,46,88,100,114,116,3,113,42,87,104,102,53,98,79,6,38,58,70,36,87,94,28"
dtnsim.node[21].app.size = "500,500,100,200,100,200,50,500,200,50,200,200,200,100,500,200,100,500,200,200,500,500,200,500,200,200,100,500,200,50,50,500,500,50,50,200,100,200,50,100,200,100,500,500,500,500,200,200,50,500,500,100,200,500,200,50,50,100,500,100,50,200,500,100,100,50,200,100,100,200,50,100,200,200,500,500,200,200,50,100,500,500,200,500,100,50,500,50,200,100,200,500,200,200,50,50,200,200,50,200"
        # Node 22 random traffic
dtnsim.node[22].app.enable = true
dtnsim.node[22].app.bundlesNumber = "1,1,1,1,1,1,1,1,1,1,1,1,1,1,1,1,1,1,1,1,1,1,1,1,1,1,1,1,1,1,1,1,1,1,1,1,1,1,1,1,1,1,1,1,1,1,1,1,1,1,1,1,1,1,1,1,1,1,1,1,1,1,1,1,1,1,1,1,1,1,1,1,1,1,1,1,1,1,1,1,1,1,1,1,1,1,1,1,1,1,1,1,1,1,1,1,1,1,1,1"
dtnsim.node[22].app.start = "3,11,1,12,5,7,18,6,5,10,9,12,5,8,3,4,6,6,14,13,12,3,14,7,16,20,9,16,10,17,8,10,14,12,6,4,20,3,5,11,18,4,14,8,9,11,4,3,10,15,7,6,17,9,17,3,12,19,15,4,19,5,15,2,20,14,8,5,13,4,11,19,13,12,2,20,11,13,12,5,2,8,17,5,5,16,9,20,11,13,14,11,14,3,5,4,17,15,6,11"
dtnsim.node[22].app.destinationEid = "2,50,49,83,98,107,46,45,36,76,46,36,54,115,109,12,100,19,104,105,88,45,92,88,84,102,41,43,42,79,19,115,41,112,113,53,84,38,114,78,102,71,79,101,93,104,74,98,67,17,112,27,3,52,27,93,69,92,60,61,2,7,80,28,59,76,58,47,48,13,16,38,15,55,8,52,117,11,94,72,18,66,16,30,47,62,34,71,3,83,82,55,57,1,9,42,54,87,96,65"