[General]
network = src.dtnsim										
repeat = 1
allow-object-stealing-on-deletion = true

# Simulation end time
sim-time-limit = 84600s

# Nodes quantity (identifiers (EiDs) matches their index, EiD=0 is ignored)			
dtnsim.nodesNumber = 360
dtnsim.node[*].icon = "satellite"

# Nodes's failure rates
dtnsim.node[*].fault.enable = true
dtnsim.node[*].fault.meanTTF = 40s
dtnsim.node[*].fault.meanTTR = 10s

# Mobility
dtnsim.node[*].hasMobility = true
dtnsim.node[*].norad.satIndex = parentIndex()
dtnsim.node[*].norad.satName = "sat"
**.updateInterval = 20s
**.numOfSats = 360
**.satPerPlane = 18
**.altitude = 540
**.planes = 20
**.phaseOffset = 11

dtnsim.node[*].dtn.routing = "antop"
dtnsim.node[*].dtn.printRoutingDebug = true

# --- Random Traffic Configuration ---
# Node 1 random conversational traffic
dtnsim.node[1].app.enable = true
dtnsim.node[1].app.bundlesNumber = "5,4,4,3,3,4,1,5,4,2,5,2,1,4,2,2,1,2,4,2,3,2,3,1,2,4,4,4,4,2,4,1,1,4,1,4,2,5,5,4,4,1,4,5,4,3,5,4,1,1,4,3,4,1,2,2,3,1,4,5,3,3,1,4,4,3,3,3,2,5,5,5,1,3,4,5,1,3,1,1,5,5,2,3,3,5,4,3,5,2,2,5,2,3,3,1,2,1,2,3"
dtnsim.node[1].app.start = "29,62,62,33,81,62,41,31,21,48,37,73,27,54,56,12,85,46,77,35,34,75,46,76,6,94,77,92,7,26,39,72,29,9,93,36,95,70,76,90,7,66,85,92,10,99,62,55,77,92,37,57,23,98,62,12,12,56,88,69,46,82,44,98,95,26,43,76,15,96,4,47,7,13,15,32,3,66,45,92,82,42,74,14,24,87,28,32,62,71,11,54,87,18,84,1,70,63,5,60"
dtnsim.node[1].app.destinationEid = "2,2,2,2,2,2,2,2,2,2,2,2,2,2,2,2,2,2,2,2,2,2,2,2,2,2,2,2,2,2,2,2,2,2,2,2,2,2,2,2,2,2,2,2,2,2,2,2,2,2,2,2,2,2,2,2,2,2,2,2,2,2,2,2,2,2,2,2,2,2,2,2,2,2,2,2,2,2,2,2,2,2,2,2,2,2,2,2,2,2,2,2,2,2,2,2,2,2,2,2"
dtnsim.node[1].app.size = "500,100,500,50,100,500,500,100,50,50,50,500,100,200,200,100,50,50,500,50,50,50,500,100,200,100,100,200,200,50,200,500,50,500,50,200,100,100,200,100,50,50,500,100,200,50,100,50,100,200,50,200,50,100,50,100,100,100,100,100,100,500,500,50,50,100,200,500,50,500,100,200,50,200,500,200,50,200,500,200,100,500,200,100,100,500,100,200,50,50,50,200,500,50,50,100,50,200,200,100"
# Node 2 random conversational traffic
dtnsim.node[2].app.enable = true
dtnsim.node[2].app.bundlesNumber = "2,5,2,5,1,5,2,2,1,3,4,5,5,5,3,4,4,5,4,5,5,1,4,5,4,2,3,2,4,3,3,2,2,2,1,4,3,4,5,3,5,3,3,2,3,3,2,1,4,1,5,4,4,1,2,1,4,5,5,4,1,3,2,4,1,1,2,3,5,4,1,3,1,1,1,3,5,3,2,1,5,4,1,3,5,1,5,4,5,4,4,3,2,5,5,4,5,2,4,5"
dtnsim.node[2].app.start = "70,37,72,44,33,27,49,42,80,62,64,15,89,85,37,38,76,77,95,87,80,33,15,97,84,71,100,13,100,61,87,94,40,64,29,17,20,66,97,51,87,48,97,34,52,78,18,100,10,17,33,4,47,100,88,79,15,34,92,36,66,80,60,96,21,92,12,13,86,56,69,81,63,26,91,66,2,44,62,97,96,67,25,11,73,76,44,73,3,23,14,89,61,86,85,5,16,39,85,52"
dtnsim.node[2].app.destinationEid = "1,1,1,1,1,1,1,1,1,1,1,1,1,1,1,1,1,1,1,1,1,1,1,1,1,1,1,1,1,1,1,1,1,1,1,1,1,1,1,1,1,1,1,1,1,1,1,1,1,1,1,1,1,1,1,1,1,1,1,1,1,1,1,1,1,1,1,3,3,3,3,3,3,3,3,3,3,3,3,3,3,3,3,3,3,3,3,3,3,3,3,3,3,3,3,3,3,3,3,3"
dtnsim.node[2].app.size = "500,100,500,500,50,500,500,200,100,50,50,50,200,200,50,100,50,200,500,100,200,50,50,50,100,100,200,200,500,500,200,100,200,200,500,500,500,500,50,200,100,500,500,100,200,500,50,200,500,500,100,500,200,500,200,200,100,200,50,500,500,50,100,500,500,500,200,500,500,500,100,500,100,100,100,50,100,100,50,100,200,50,200,50,50,50,500,500,500,100,50,50,200,500,100,50,500,500,500,50"
# Node 3 random conversational traffic
dtnsim.node[3].app.enable = true
dtnsim.node[3].app.bundlesNumber = "3,2,2,1,3,5,1,5,5,3,1,3,3,2,3,3,4,3,5,2,5,3,4,1,5,2,4,5,2,2,5,1,3,2,2,2,5,1,3,5,3,5,2,4,5,5,4,2,1,5,4,4,5,4,2,5,4,2,1,5,2,3,2,4,1,5,5,3,4,2,1,1,4,1,4,3,3,2,5,4,1,5,5,1,4,2,2,2,4,2,3,5,3,2,3,5,2,5,4,3"
dtnsim.node[3].app.start = "23,90,69,31,95,47,65,31,17,81,80,74,19,90,90,95,9,86,55,38,18,79,47,19,46,93,25,6,84,20,35,77,80,25,27,8,14,43,83,10,15,10,29,4,33,18,50,81,90,76,26,65,98,51,81,74,7,20,66,3,72,31,50,94,65,96,63,52,67,39,78,84,19,33,89,57,10,13,66,49,64,20,98,69,23,10,88,31,7,19,69,2,98,59,97,26,14,51,88,1"
dtnsim.node[3].app.destinationEid = "2,2,2,2,2,2,2,2,2,2,2,2,2,2,2,2,2,2,2,4,4,4,4,4,4,4,4,4,4,4,4,4,4,4,4,4,4,4,4,4,4,4,4,4,4,4,4,4,4,4,4,4,4,4,4,4,4,4,4,4,4,4,4,4,4,4,4,4,4,4,4,4,4,4,4,4,4,4,4,4,4,4,4,4,4,4,4,4,4,4,4,4,4,4,4,4,4,4,4,4"
dtnsim.node[3].app.size = "200,50,200,50,50,50,200,200,50,100,50,500,500,50,200,100,100,200,500,100,50,500,200,50,500,500,50,50,50,500,500,500,50,500,200,50,200,50,500,50,50,100,100,50,500,200,200,200,50,50,50,100,200,50,100,50,100,100,100,500,500,200,100,100,500,50,100,50,500,500,500,100,100,500,200,100,100,50,100,50,100,100,500,100,200,100,500,500,200,100,500,500,50,50,200,50,500,100,50,200"
# Node 4 random conversational traffic
dtnsim.node[4].app.enable = true
dtnsim.node[4].app.bundlesNumber = "4,2,5,4,5,4,2,3,5,4,2,3,4,3,1,5,3,4,1,1,1,5,1,4,5,2,2,4,4,2,3,3,4,5,5,1,2,1,2,5,1,5,5,1,2,4,2,3,4,4,1,5,3,4,5,4,1,3,1,3,1,5,5,5,4,3,2,3,3,3,2,5,1,4,4,4,2,3,2,2,3,4,4,4,4,2,4,3,5,3,1,4,5,5,4,4,5,5,2,1"
dtnsim.node[4].app.start = "42,23,82,56,96,28,15,87,40,81,87,33,49,11,34,5,37,24,90,92,82,69,87,81,13,8,80,34,66,100,70,69,43,58,15,15,72,57,69,99,77,25,71,7,99,31,18,54,8,63,19,1,50,45,92,51,48,48,45,53,20,88,90,92,17,27,54,51,62,4,10,24,46,52,87,43,73,1,6,8,5,52,25,70,9,88,8,47,29,5,95,50,90,88,70,61,89,99,71,14"
dtnsim.node[4].app.destinationEid = "3,3,3,3,3,3,3,3,3,3,3,3,3,3,3,3,3,3,3,3,3,3,3,3,3,3,3,3,3,3,3,3,3,3,3,3,3,3,3,3,3,3,3,3,3,3,3,3,3,5,5,5,5,5,5,5,5,5,5,5,5,5,5,5,5,5,5,5,5,5,5,5,5,5,5,5,5,5,5,5,5,5,5,5,5,5,5,5,5,5,5,5,5,5,5,5,5,5,5,5"
dtnsim.node[4].app.size = "50,100,200,200,50,200,100,100,200,500,100,500,200,50,100,200,50,200,50,500,500,200,100,50,200,100,50,200,100,50,500,50,100,500,100,500,500,200,100,100,100,500,500,50,500,200,500,200,100,50,200,100,100,100,500,50,50,500,100,100,100,100,500,200,50,50,100,500,500,500,100,50,100,100,200,200,500,50,50,50,200,500,100,50,100,200,200,200,50,200,50,100,50,200,200,100,50,200,100,500"
# Node 5 random conversational traffic
dtnsim.node[5].app.enable = true
dtnsim.node[5].app.bundlesNumber = "1,2,3,2,5,3,1,3,3,4,1,3,2,5,1,2,5,1,2,3,3,5,4,1,5,3,5,1,3,3,1,3,3,2,1,1,2,1,4,2,1,3,3,2,4,5,2,5,4,3,3,5,2,4,4,1,5,2,5,4,5,2,1,2,1,5,5,4,1,2,3,3,2,5,1,3,3,4,3,5,1,5,2,5,3,4,1,4,2,2,2,4,4,1,4,1,3,4,1,1"
dtnsim.node[5].app.start = "21,10,55,96,57,58,26,21,32,52,68,18,50,56,52,75,11,11,60,31,78,15,93,37,12,98,91,89,76,64,100,78,3,7,49,42,77,21,89,50,71,21,54,72,78,52,19,37,75,2,59,58,92,58,68,92,30,10,40,1,17,45,61,90,77,42,69,17,54,42,73,16,53,9,48,6,99,35,77,7,23,4,98,11,97,31,90,59,83,99,66,73,18,10,25,58,2,71,22,85"
dtnsim.node[5].app.destinationEid = "4,4,4,4,4,4,4,4,4,4,4,4,4,4,4,4,4,4,4,4,4,4,4,4,4,4,4,4,4,4,4,4,6,6,6,6,6,6,6,6,6,6,6,6,6,6,6,6,6,6,6,6,6,6,6,6,6,6,6,6,6,6,6,6,6,6,6,6,6,6,6,6,6,6,6,6,6,6,6,6,6,6,6,6,6,6,6,6,6,6,6,6,6,6,6,6,6,6,6,6"
dtnsim.node[5].app.size = "500,500,500,500,500,200,200,100,50,200,200,50,50,50,50,500,200,100,500,100,50,500,500,200,200,500,50,50,50,50,100,200,500,100,100,50,200,200,500,500,500,500,500,100,50,200,200,500,50,200,200,200,200,50,100,100,500,100,100,200,50,500,500,100,100,200,100,50,50,200,500,500,200,50,200,500,500,100,500,500,50,100,200,100,100,500,100,200,100,200,200,50,100,50,500,50,500,100,50,100"
# Node 6 random conversational traffic
dtnsim.node[6].app.enable = true
dtnsim.node[6].app.bundlesNumber = "5,4,3,3,3,3,2,3,1,5,4,2,1,4,2,4,2,1,1,3,3,1,3,3,3,1,5,5,1,2,5,1,2,4,1,1,2,5,4,3,5,1,1,3,2,5,3,3,1,5,2,3,1,2,4,5,2,3,2,5,4,4,2,2,2,3,4,5,2,5,2,2,1,4,2,5,1,3,4,1,5,1,5,2,1,3,4,3,3,4,1,5,5,4,5,3,4,2,3,1"
dtnsim.node[6].app.start = "12,56,50,29,51,58,73,83,56,20,47,3,77,36,18,94,50,76,58,45,77,26,19,13,100,26,14,99,15,98,33,99,63,85,76,26,20,29,25,92,28,8,69,99,100,67,85,51,67,86,77,61,93,76,75,19,3,49,71,88,13,48,28,7,46,11,65,75,48,68,77,74,64,55,10,70,17,7,31,15,42,45,11,73,39,55,51,44,12,62,67,39,54,35,39,61,65,45,90,96"
dtnsim.node[6].app.destinationEid = "5,5,5,5,5,5,5,5,5,5,5,5,5,5,5,5,5,5,5,5,5,5,5,5,5,5,5,5,5,5,5,5,5,5,5,5,5,5,5,5,7,7,7,7,7,7,7,7,7,7,7,7,7,7,7,7,7,7,7,7,7,7,7,7,7,7,7,7,7,7,7,7,7,7,7,7,7,7,7,7,7,7,7,7,7,7,7,7,7,7,7,7,7,7,7,7,7,7,7,7"
dtnsim.node[6].app.size = "500,200,200,50,100,500,100,50,100,200,200,100,500,100,500,100,500,50,200,100,100,200,500,200,500,50,100,200,50,200,100,50,200,500,50,50,100,200,200,100,500,50,100,500,200,200,50,200,200,100,100,500,200,500,200,200,500,100,200,500,50,50,100,500,200,200,200,100,200,100,500,50,500,100,200,50,50,200,100,100,100,100,100,50,100,100,200,200,100,500,500,50,500,200,100,50,500,500,50,500"
# Node 7 random conversational traffic
dtnsim.node[7].app.enable = true
dtnsim.node[7].app.bundlesNumber = "4,1,4,1,4,5,3,1,4,5,2,2,5,4,4,1,1,3,3,3,3,5,1,2,5,1,2,2,5,5,4,4,3,1,4,2,4,5,1,2,1,1,3,3,4,3,3,2,3,4,1,3,4,4,4,1,4,4,5,5,4,2,1,1,2,5,1,2,2,4,4,1,3,2,2,4,3,4,4,3,3,4,3,5,4,3,1,3,2,1,2,2,1,1,3,1,1,2,4,4"
dtnsim.node[7].app.start = "30,17,100,74,94,58,71,96,87,67,94,83,85,25,51,81,94,38,53,67,52,69,78,75,60,17,45,53,75,59,50,64,77,47,60,42,71,37,4,42,79,81,5,100,47,71,11,44,24,3,37,86,1,56,38,63,99,82,98,99,87,62,31,49,94,76,93,12,15,15,80,64,96,83,74,23,56,28,9,27,8,93,35,25,72,14,84,42,22,86,15,84,18,16,80,73,62,92,1,75"
dtnsim.node[7].app.destinationEid = "6,6,6,6,6,6,6,6,6,6,6,6,6,6,6,6,6,6,6,6,6,6,6,6,6,6,6,6,6,6,6,6,6,6,6,6,6,8,8,8,8,8,8,8,8,8,8,8,8,8,8,8,8,8,8,8,8,8,8,8,8,8,8,8,8,8,8,8,8,8,8,8,8,8,8,8,8,8,8,8,8,8,8,8,8,8,8,8,8,8,8,8,8,8,8,8,8,8,8,8"
dtnsim.node[7].app.size = "200,500,50,500,500,100,500,100,500,500,500,500,50,50,100,500,100,100,100,50,50,200,50,50,500,500,200,500,200,500,200,500,100,200,100,50,100,200,50,500,500,50,200,500,100,500,200,100,200,100,200,50,500,50,200,200,50,200,200,100,500,50,500,200,50,100,50,200,500,200,50,200,100,100,50,500,100,50,50,50,100,200,500,500,200,100,100,50,200,50,500,500,100,50,50,500,500,200,100,100"
# Node 8 random conversational traffic
dtnsim.node[8].app.enable = true
dtnsim.node[8].app.bundlesNumber = "1,5,2,1,5,3,5,5,1,4,2,2,2,1,4,4,3,4,5,4,4,3,4,5,3,4,4,3,1,4,4,3,3,1,2,1,5,3,1,2,2,1,3,3,2,3,5,1,4,4,3,3,2,2,5,2,3,2,3,1,2,1,4,4,4,2,1,1,1,5,5,1,1,5,4,5,5,1,4,5,2,1,4,2,5,5,1,5,3,5,5,1,3,2,2,5,3,5,3,5"
dtnsim.node[8].app.start = "39,85,86,11,100,72,17,46,29,4,39,88,10,39,64,91,100,68,96,99,20,16,70,86,84,59,36,15,13,43,30,73,19,87,89,74,63,10,81,81,53,40,31,57,26,25,51,35,93,9,21,27,45,93,15,33,20,41,18,29,18,36,34,21,27,33,58,30,88,99,82,61,80,55,81,78,56,47,71,58,24,16,3,69,49,40,82,44,41,91,50,60,21,17,27,95,61,90,62,20"
dtnsim.node[8].app.destinationEid = "7,7,7,7,7,7,7,7,7,7,7,7,7,7,7,7,7,7,7,7,7,7,7,7,7,7,7,7,7,7,7,7,7,7,7,7,7,7,7,9,9,9,9,9,9,9,9,9,9,9,9,9,9,9,9,9,9,9,9,9,9,9,9,9,9,9,9,9,9,9,9,9,9,9,9,9,9,9,9,9,9,9,9,9,9,9,9,9,9,9,9,9,9,9,9,9,9,9,9,9"
dtnsim.node[8].app.size = "200,500,100,100,100,100,200,50,200,500,500,200,100,100,200,100,500,100,500,100,200,500,500,500,500,50,200,50,50,200,50,100,50,50,500,50,50,50,50,100,200,50,100,50,200,200,50,200,100,50,200,50,500,200,200,50,100,100,200,50,100,100,50,50,100,200,100,100,200,500,500,50,500,500,50,200,500,100,200,500,100,100,200,100,200,200,500,200,200,100,50,500,500,50,200,200,500,200,50,200"
# Node 9 random conversational traffic
dtnsim.node[9].app.enable = true
dtnsim.node[9].app.bundlesNumber = "2,2,3,2,1,4,2,3,1,1,4,1,5,2,3,4,4,5,2,1,2,4,1,2,2,2,5,2,2,3,5,2,4,2,3,1,5,5,4,5,4,4,5,3,2,5,2,4,3,2,5,4,3,3,4,1,4,2,2,5,4,5,2,2,1,2,1,4,3,5,5,3,2,5,5,4,4,2,5,4,2,3,5,5,5,4,2,4,1,5,3,5,1,3,2,5,1,5,3,5"
dtnsim.node[9].app.start = "91,37,65,27,59,100,15,35,50,99,21,27,28,31,37,38,41,62,87,70,83,88,50,80,32,23,5,57,53,45,98,53,63,28,37,63,71,30,40,93,48,85,89,9,30,5,43,97,70,53,96,3,2,90,51,51,21,61,5,34,57,52,42,29,96,99,98,38,8,45,46,39,70,70,45,5,38,17,50,28,68,41,6,80,38,19,48,34,50,31,56,18,64,70,40,88,16,26,36,29"
dtnsim.node[9].app.destinationEid = "8,8,8,8,8,8,8,8,8,8,8,8,8,8,8,8,8,8,8,8,8,8,8,8,8,8,8,8,8,8,8,8,8,8,8,8,8,8,10,10,10,10,10,10,10,10,10,10,10,10,10,10,10,10,10,10,10,10,10,10,10,10,10,10,10,10,10,10,10,10,10,10,10,10,10,10,10,10,10,10,10,10,10,10,10,10,10,10,10,10,10,10,10,10,10,10,10,10,10,10"
dtnsim.node[9].app.size = "500,500,200,50,100,50,100,200,200,100,200,50,100,100,200,200,50,50,200,200,500,100,500,500,100,500,100,200,200,500,200,100,100,500,100,500,200,500,50,200,50,50,500,50,50,200,50,500,50,100,100,200,200,200,100,500,100,50,200,100,200,200,100,200,100,500,100,500,200,200,100,100,200,200,50,500,500,200,200,200,50,200,50,200,500,200,100,50,50,100,50,200,500,100,50,50,200,50,100,100"
# Node 10 random conversational traffic
dtnsim.node[10].app.enable = true
dtnsim.node[10].app.bundlesNumber = "4,5,1,5,4,2,2,3,1,4,2,5,1,5,1,3,1,1,5,5,2,3,2,2,3,1,1,3,2,2,5,5,4,1,4,3,5,5,2,4,3,3,5,1,4,2,2,4,2,1,2,1,4,5,4,1,3,3,4,2,5,3,4,5,4,4,2,5,4,5,1,2,4,4,5,1,4,2,4,2,5,3,3,2,4,5,1,3,5,1,4,2,2,5,4,1,3,2,1,2"
dtnsim.node[10].app.start = "41,57,95,90,18,75,100,6,11,100,52,62,43,66,61,100,100,99,14,50,47,40,73,46,8,22,59,37,74,46,7,52,44,72,71,46,17,36,45,33,64,18,11,41,99,77,39,5,96,66,40,49,96,31,2,56,21,49,30,80,20,30,52,9,54,41,92,89,26,3,77,86,53,64,33,18,11,5,87,19,81,44,16,89,49,23,54,58,66,3,3,8,19,72,10,90,12,53,77,20"
dtnsim.node[10].app.destinationEid = "9,9,9,9,9,9,9,9,9,9,9,9,9,9,9,9,9,9,9,9,9,9,9,9,9,9,9,9,9,9,9,9,9,9,9,9,9,9,9,9,11,11,11,11,11,11,11,11,11,11,11,11,11,11,11,11,11,11,11,11,11,11,11,11,11,11,11,11,11,11,11,11,11,11,11,11,11,11,11,11,11,11,11,11,11,11,11,11,11,11,11,11,11,11,11,11,11,11,11,11"
dtnsim.node[10].app.size = "50,100,200,50,200,50,100,50,200,500,200,200,100,50,50,200,200,500,200,500,50,50,200,50,500,50,200,200,50,100,200,50,200,500,500,100,200,50,100,100,50,500,50,200,50,50,500,500,100,200,50,500,50,200,500,200,200,500,100,500,200,100,50,200,500,100,50,50,100,50,100,200,200,200,100,500,500,500,50,50,200,100,50,500,500,500,500,200,500,500,200,500,200,200,500,100,100,100,200,200"
# Node 11 random conversational traffic
dtnsim.node[11].app.enable = true
dtnsim.node[11].app.bundlesNumber = "5,2,5,4,3,1,5,2,1,5,4,4,2,3,3,4,1,5,4,3,4,5,1,2,2,5,3,4,2,3,1,2,2,1,5,3,2,1,4,2,1,2,2,5,1,1,4,1,1,1,5,5,2,1,3,4,1,3,3,2,1,4,2,4,2,4,5,1,1,3,1,4,4,3,5,4,1,5,1,4,3,2,3,1,4,4,4,4,2,3,3,5,3,4,5,5,5,4,4,3"
dtnsim.node[11].app.start = "68,27,44,100,80,49,99,67,41,50,97,35,12,30,55,32,23,55,11,99,31,8,79,72,24,18,88,25,89,24,90,58,61,64,68,26,79,96,14,56,85,67,49,4,4,82,44,39,59,74,61,66,90,53,24,50,55,41,98,61,82,33,74,37,84,13,89,51,80,12,15,68,100,73,79,47,23,61,28,63,68,82,95,1,7,11,18,43,38,42,66,95,26,3,35,23,27,47,76,95"
dtnsim.node[11].app.destinationEid = "10,10,10,10,10,10,10,10,10,10,10,10,10,10,10,10,10,10,10,10,10,10,10,10,10,10,10,10,10,10,10,10,10,10,10,10,10,10,10,10,10,12,12,12,12,12,12,12,12,12,12,12,12,12,12,12,12,12,12,12,12,12,12,12,12,12,12,12,12,12,12,12,12,12,12,12,12,12,12,12,12,12,12,12,12,12,12,12,12,12,12,12,12,12,12,12,12,12,12,12"
dtnsim.node[11].app.size = "100,50,100,50,500,500,200,100,50,500,100,100,500,50,50,200,100,50,500,200,500,500,200,500,200,500,500,500,500,500,500,50,50,200,100,100,50,50,100,100,50,500,50,200,100,100,500,200,500,50,50,500,200,100,200,500,50,500,200,200,200,50,100,50,500,200,50,200,50,100,100,200,100,200,100,200,500,50,500,200,500,100,500,100,500,200,500,100,500,100,200,500,500,200,50,500,100,500,50,50"
# Node 12 random conversational traffic
dtnsim.node[12].app.enable = true
dtnsim.node[12].app.bundlesNumber = "2,2,5,2,2,1,4,4,2,5,1,1,5,5,1,4,4,3,4,4,4,1,5,2,2,2,3,1,1,2,1,4,4,4,5,2,2,5,2,2,3,1,1,3,3,4,1,3,2,4,4,5,4,5,3,2,4,5,1,4,5,1,1,3,3,4,2,5,3,5,5,2,2,1,5,1,5,5,2,4,5,3,1,5,2,5,5,4,1,2,3,1,4,3,5,5,4,4,5,3"
dtnsim.node[12].app.start = "54,6,92,66,78,64,72,60,46,100,66,91,79,41,91,56,83,22,69,100,86,49,66,31,64,74,85,16,41,34,37,26,81,100,86,18,34,37,33,31,35,62,10,1,95,30,66,73,1,93,88,46,72,39,96,37,7,88,96,72,60,59,72,92,92,25,84,49,16,88,9,87,93,52,28,67,25,80,47,85,92,59,42,83,7,86,20,85,35,18,78,35,37,39,95,63,41,49,91,10"
dtnsim.node[12].app.destinationEid = "11,11,11,11,11,11,11,11,11,11,11,11,11,11,11,11,11,11,11,11,11,11,11,11,11,11,11,11,11,11,11,11,11,11,13,13,13,13,13,13,13,13,13,13,13,13,13,13,13,13,13,13,13,13,13,13,13,13,13,13,13,13,13,13,13,13,13,13,13,13,13,13,13,13,13,13,13,13,13,13,13,13,13,13,13,13,13,13,13,13,13,13,13,13,13,13,13,13,13,13"
dtnsim.node[12].app.size = "50,200,50,50,100,200,500,200,50,500,200,500,100,50,500,100,200,100,50,100,500,200,500,500,200,50,50,200,200,50,100,100,200,50,50,50,50,500,200,200,500,500,50,200,50,200,200,50,100,50,50,200,500,100,100,100,50,500,500,50,50,200,50,100,500,100,200,50,200,50,100,100,50,500,50,500,100,500,500,500,500,200,100,50,200,500,200,500,500,500,500,200,200,500,200,50,500,200,500,100"
# Node 13 random conversational traffic
dtnsim.node[13].app.enable = true
dtnsim.node[13].app.bundlesNumber = "4,5,3,5,3,3,5,4,2,3,2,2,3,4,1,2,5,3,5,2,4,2,3,3,5,4,3,2,5,3,4,4,5,4,4,5,1,4,4,4,3,4,5,3,3,3,3,4,2,4,2,4,3,1,5,2,4,3,1,5,4,3,2,1,4,1,2,5,2,1,5,4,4,3,4,5,2,4,4,5,4,2,2,1,5,4,2,5,4,3,5,1,1,5,2,1,1,3,2,2"
dtnsim.node[13].app.start = "23,41,40,40,63,98,73,82,89,79,41,69,77,100,94,26,23,96,98,30,27,84,48,88,96,68,44,93,16,23,43,37,46,41,99,43,70,53,13,64,17,89,27,51,35,92,64,2,15,10,93,37,72,18,94,13,85,54,99,92,67,49,99,99,98,51,45,81,38,20,75,86,84,6,41,25,99,59,33,87,5,35,72,87,59,51,74,75,65,58,83,51,45,25,19,83,97,57,60,82"
dtnsim.node[13].app.destinationEid = "12,12,12,12,12,12,12,12,12,12,12,12,12,12,12,12,12,12,12,12,12,12,12,12,12,12,12,12,12,12,12,12,12,12,12,12,14,14,14,14,14,14,14,14,14,14,14,14,14,14,14,14,14,14,14,14,14,14,14,14,14,14,14,14,14,14,14,14,14,14,14,14,14,14,14,14,14,14,14,14,14,14,14,14,14,14,14,14,14,14,14,14,14,14,14,14,14,14,14,14"
dtnsim.node[13].app.size = "100,100,50,50,50,100,500,50,200,500,50,50,50,500,50,100,100,500,100,100,50,100,200,200,100,50,100,50,200,200,100,500,100,200,500,200,50,200,200,200,500,200,500,100,200,200,500,100,50,200,100,100,100,100,100,50,500,500,100,200,200,100,200,100,500,100,500,500,50,100,200,200,200,100,500,500,500,500,200,50,50,100,500,200,50,200,50,500,50,100,500,500,200,100,50,50,500,500,50,200"
# Node 14 random conversational traffic
dtnsim.node[14].app.enable = true
dtnsim.node[14].app.bundlesNumber = "4,4,4,3,3,4,1,2,5,3,1,4,5,1,2,3,2,1,4,1,3,4,1,4,1,3,3,2,4,5,2,4,2,4,1,5,5,1,5,2,5,4,4,3,5,2,1,1,4,1,2,4,4,1,4,2,3,3,2,2,1,1,1,5,5,1,3,3,3,2,1,4,1,2,1,3,2,1,1,4,3,2,3,2,5,3,2,1,4,1,4,3,4,1,3,5,2,3,5,2"
dtnsim.node[14].app.start = "54,15,72,21,98,34,60,41,16,15,97,43,20,95,58,98,70,52,100,58,54,83,42,26,77,87,91,100,64,39,88,15,41,82,96,84,66,88,60,49,26,21,88,98,86,51,66,78,34,1,79,96,58,50,88,68,66,65,7,2,29,16,11,85,7,23,29,76,52,7,50,10,66,43,69,61,91,54,50,80,25,87,77,86,54,65,17,36,23,18,92,58,97,74,27,96,98,33,9,84"
dtnsim.node[14].app.destinationEid = "13,13,13,13,13,13,13,13,13,13,13,13,13,13,13,13,13,13,13,13,13,13,13,13,13,13,13,13,13,13,13,13,13,13,13,13,13,13,13,13,13,13,13,13,13,15,15,15,15,15,15,15,15,15,15,15,15,15,15,15,15,15,15,15,15,15,15,15,15,15,15,15,15,15,15,15,15,15,15,15,15,15,15,15,15,15,15,15,15,15,15,15,15,15,15,15,15,15,15,15"
dtnsim.node[14].app.size = "100,50,500,200,100,200,100,500,50,100,200,50,100,50,100,200,50,50,200,50,500,200,200,100,100,50,200,500,100,50,100,500,50,500,200,50,50,50,100,50,100,200,50,100,500,100,50,100,200,100,100,50,500,500,500,500,500,500,500,500,500,100,100,500,500,200,200,50,100,200,500,500,50,200,200,100,50,100,100,200,100,100,200,100,200,500,100,500,100,50,500,100,100,100,100,100,100,100,500,50"
# Node 15 random conversational traffic
dtnsim.node[15].app.enable = true
dtnsim.node[15].app.bundlesNumber = "3,3,1,4,3,1,5,5,2,2,1,4,3,1,2,2,1,4,3,4,4,4,3,5,1,4,5,3,4,2,3,2,3,3,5,3,5,5,4,3,2,2,1,2,4,5,1,2,5,1,4,2,2,5,2,1,3,1,4,3,1,2,4,2,4,5,1,3,4,4,4,4,2,1,5,3,3,4,2,4,3,2,3,1,5,2,4,5,2,3,5,3,4,4,2,5,1,1,4,2"
dtnsim.node[15].app.start = "54,68,79,39,7,99,53,94,75,91,13,35,78,16,51,72,78,89,97,81,95,56,75,25,33,23,94,64,31,99,16,93,88,56,30,92,39,3,50,41,70,21,65,81,47,26,30,62,26,57,83,45,74,62,81,33,19,20,8,97,79,46,40,66,66,46,47,66,4,23,28,85,89,46,35,79,61,10,13,43,96,49,72,23,83,96,75,2,86,95,68,40,78,9,77,70,6,57,1,75"
dtnsim.node[15].app.destinationEid = "14,14,14,14,14,14,14,14,14,14,14,14,14,14,14,14,14,14,14,14,14,14,14,14,14,14,14,14,14,14,14,14,16,16,16,16,16,16,16,16,16,16,16,16,16,16,16,16,16,16,16,16,16,16,16,16,16,16,16,16,16,16,16,16,16,16,16,16,16,16,16,16,16,16,16,16,16,16,16,16,16,16,16,16,16,16,16,16,16,16,16,16,16,16,16,16,16,16,16,16"
dtnsim.node[15].app.size = "100,100,200,200,200,500,200,100,500,500,200,100,200,100,50,50,200,500,50,100,200,500,500,200,200,50,50,50,500,500,100,100,200,50,500,200,500,500,50,500,200,200,500,100,50,50,500,50,100,100,50,50,50,50,50,200,500,100,100,500,200,100,100,500,100,500,100,200,500,100,100,100,50,100,100,500,500,500,200,500,200,200,500,50,100,500,200,200,500,200,50,200,50,500,200,500,100,50,500,200"
# Node 16 random conversational traffic
dtnsim.node[16].app.enable = true
dtnsim.node[16].app.bundlesNumber = "1,2,1,1,1,5,5,1,4,1,3,3,1,4,5,2,1,3,5,2,2,1,3,4,2,4,2,4,5,2,3,2,1,4,3,4,1,5,2,2,4,1,3,4,3,2,4,4,3,3,1,1,1,1,1,3,3,2,4,2,1,5,3,5,2,1,4,3,3,4,5,5,2,2,3,4,5,4,3,1,5,1,2,5,2,1,3,1,2,4,5,5,2,5,3,2,1,4,5,3"
dtnsim.node[16].app.start = "89,32,45,77,67,27,30,66,85,50,83,65,35,26,21,13,80,50,47,72,76,73,9,37,95,55,41,46,79,24,98,43,85,9,67,8,75,57,44,36,93,14,3,39,5,65,55,24,40,89,57,28,6,35,97,57,48,13,59,93,57,94,9,41,5,12,68,64,67,35,50,33,83,58,88,12,35,83,97,75,61,17,26,85,86,21,20,99,80,34,83,54,18,86,12,85,92,52,30,70"
dtnsim.node[16].app.destinationEid = "15,15,15,15,15,15,15,15,15,15,15,15,15,15,15,15,15,15,15,15,15,15,15,15,15,15,15,15,15,15,15,15,15,15,15,15,17,17,17,17,17,17,17,17,17,17,17,17,17,17,17,17,17,17,17,17,17,17,17,17,17,17,17,17,17,17,17,17,17,17,17,17,17,17,17,17,17,17,17,17,17,17,17,17,17,17,17,17,17,17,17,17,17,17,17,17,17,17,17,17"
dtnsim.node[16].app.size = "100,100,500,200,100,500,50,200,100,100,500,50,500,100,500,100,200,500,50,200,500,200,50,200,200,50,50,100,50,100,500,100,500,50,100,200,100,50,500,200,50,100,100,100,50,50,100,100,50,50,200,500,50,50,200,50,500,200,500,100,500,200,500,500,100,50,50,500,200,500,200,50,200,200,500,50,50,100,500,200,200,100,50,500,50,100,100,100,100,500,50,200,50,50,100,500,100,50,50,50"
# Node 17 random conversational traffic
dtnsim.node[17].app.enable = true
dtnsim.node[17].app.bundlesNumber = "4,3,5,3,5,3,4,4,4,2,4,3,3,3,1,1,4,1,4,1,5,4,5,5,1,3,5,4,5,5,5,5,2,3,5,4,3,3,1,5,5,4,4,4,2,4,1,3,3,3,3,2,3,2,1,5,2,3,4,5,1,2,4,2,4,2,1,3,5,4,3,1,5,5,5,2,1,1,4,2,5,4,2,5,1,2,1,2,2,1,4,5,3,2,3,1,3,5,4,2"
dtnsim.node[17].app.start = "84,39,99,19,44,66,59,41,66,12,98,49,14,63,94,64,95,6,16,77,42,51,40,94,45,86,70,23,91,24,81,38,59,23,95,90,71,96,75,34,41,11,48,14,11,76,52,58,93,10,22,95,34,84,58,20,23,74,53,7,57,27,98,54,51,4,11,76,25,12,22,81,53,93,61,20,71,32,21,14,26,89,59,81,9,1,26,40,45,50,66,45,1,94,81,20,89,6,66,26"
dtnsim.node[17].app.destinationEid = "16,16,16,16,16,16,16,16,16,16,16,16,16,16,16,16,16,16,16,16,16,16,16,16,16,16,16,16,16,16,16,16,16,16,16,16,16,18,18,18,18,18,18,18,18,18,18,18,18,18,18,18,18,18,18,18,18,18,18,18,18,18,18,18,18,18,18,18,18,18,18,18,18,18,18,18,18,18,18,18,18,18,18,18,18,18,18,18,18,18,18,18,18,18,18,18,18,18,18,18"
dtnsim.node[17].app.size = "100,50,200,100,200,200,100,100,50,50,200,500,500,500,200,100,50,50,100,500,200,200,200,200,200,200,100,200,100,500,500,50,500,100,50,50,50,50,200,200,50,200,500,200,500,200,200,500,500,200,500,200,500,50,200,500,100,500,500,200,50,50,100,200,500,500,100,100,200,200,500,50,50,100,500,200,50,50,200,100,50,500,100,50,200,100,500,50,200,100,500,200,50,500,200,500,100,100,500,500"
# Node 18 random conversational traffic
dtnsim.node[18].app.enable = true
dtnsim.node[18].app.bundlesNumber = "4,3,5,5,4,4,3,1,2,3,3,4,1,1,4,4,4,3,3,3,3,4,3,5,2,5,2,4,4,4,5,5,3,2,5,1,1,5,3,3,5,2,4,3,1,3,5,4,2,4,3,5,4,1,3,2,2,1,1,2,4,4,2,2,3,2,5,5,5,4,2,5,4,3,5,4,4,3,3,1,1,4,1,3,1,5,4,2,2,4,3,5,5,1,4,1,4,2,2,5"
dtnsim.node[18].app.start = "99,81,44,49,21,15,81,59,60,100,29,64,21,32,8,35,99,10,84,16,69,25,74,35,29,17,27,93,85,17,32,47,59,67,46,10,24,8,31,88,82,6,1,68,88,3,43,7,90,94,27,71,28,9,68,38,88,39,14,12,94,88,23,51,42,77,74,9,41,93,80,95,53,86,20,94,13,87,49,27,13,75,50,70,22,82,85,47,46,40,93,92,43,50,8,42,7,66,73,30"
dtnsim.node[18].app.destinationEid = "17,17,17,17,17,17,17,17,17,17,17,17,17,17,17,17,17,17,17,17,17,17,17,17,17,17,17,17,17,17,17,17,17,17,17,17,17,17,19,19,19,19,19,19,19,19,19,19,19,19,19,19,19,19,19,19,19,19,19,19,19,19,19,19,19,19,19,19,19,19,19,19,19,19,19,19,19,19,19,19,19,19,19,19,19,19,19,19,19,19,19,19,19,19,19,19,19,19,19,19"
dtnsim.node[18].app.size = "200,100,200,200,100,500,200,500,100,200,50,50,50,500,50,100,500,100,50,50,50,500,50,50,200,50,100,50,200,50,100,500,100,200,50,500,500,500,200,500,200,100,50,200,50,200,50,500,200,100,100,50,100,100,50,100,200,200,50,200,200,50,500,200,100,200,50,200,50,200,50,200,50,500,50,100,50,50,200,50,200,100,100,500,100,100,200,50,100,100,500,500,100,50,100,500,500,100,500,500"
# Node 19 random conversational traffic
dtnsim.node[19].app.enable = true
dtnsim.node[19].app.bundlesNumber = "3,1,5,3,5,2,3,2,3,5,3,5,5,3,5,4,3,4,5,2,1,2,5,5,2,5,5,1,3,4,4,5,4,1,5,3,1,4,5,5,1,3,1,1,1,3,1,1,2,1,3,5,4,3,5,4,2,1,5,2,3,4,2,3,3,3,1,5,4,1,1,5,1,4,5,4,1,4,5,4,5,5,2,5,4,3,1,1,1,1,2,1,3,3,5,3,2,2,5,5"
dtnsim.node[19].app.start = "40,12,90,53,16,100,99,33,17,46,44,15,15,99,31,58,48,82,94,25,95,55,77,84,93,53,95,54,18,52,67,80,37,50,3,66,80,81,86,38,100,58,59,75,49,41,83,53,1,16,34,40,93,73,50,70,24,15,70,70,25,8,72,27,8,35,63,41,24,69,8,55,74,93,88,92,3,94,40,21,4,23,55,88,80,8,70,18,32,61,94,20,38,18,69,33,30,21,53,14"
dtnsim.node[19].app.destinationEid = "18,18,18,18,18,18,18,18,18,18,18,18,18,18,18,18,18,18,18,18,18,18,18,18,18,18,18,18,18,18,18,18,18,20,20,20,20,20,20,20,20,20,20,20,20,20,20,20,20,20,20,20,20,20,20,20,20,20,20,20,20,20,20,20,20,20,20,20,20,20,20,20,20,20,20,20,20,20,20,20,20,20,20,20,20,20,20,20,20,20,20,20,20,20,20,20,20,20,20,20"
dtnsim.node[19].app.size = "50,50,50,100,500,50,200,500,500,200,100,200,500,200,500,200,100,200,500,200,50,100,50,100,200,100,50,50,500,500,100,200,100,100,200,100,500,100,50,500,500,50,50,500,500,200,500,200,100,50,50,200,200,50,500,50,500,500,200,100,100,100,50,500,50,500,100,200,200,100,200,500,50,500,50,500,200,50,100,100,100,100,500,500,50,100,50,500,100,200,100,200,500,50,50,200,50,200,50,50"
# Node 20 random conversational traffic
dtnsim.node[20].app.enable = true
dtnsim.node[20].app.bundlesNumber = "4,1,1,2,3,3,4,1,4,5,2,1,2,1,4,3,3,3,4,3,2,2,1,2,4,2,4,2,2,5,5,4,2,2,5,2,3,5,3,3,4,4,3,4,1,2,2,1,1,5,3,4,1,1,5,1,4,5,2,1,5,5,3,5,5,5,3,3,1,5,2,1,4,4,1,5,5,3,5,4,2,5,1,4,2,5,4,4,3,3,3,3,2,4,4,5,1,4,5,1"
dtnsim.node[20].app.start = "6,87,84,66,82,56,57,11,21,40,94,76,59,80,27,20,72,73,32,15,78,12,71,45,77,56,97,96,43,29,14,58,97,88,24,33,24,44,27,76,33,76,51,17,9,27,36,19,25,62,53,49,67,35,55,9,97,73,42,28,81,87,32,21,77,33,93,75,89,73,44,59,12,97,78,89,93,55,45,36,58,99,73,44,86,12,52,9,31,42,14,92,19,86,85,45,64,98,12,28"
dtnsim.node[20].app.destinationEid = "19,19,19,19,19,19,19,19,19,19,19,19,19,19,19,19,19,19,19,19,19,19,19,19,19,19,19,19,19,19,19,19,19,19,19,19,19,19,19,19,19,21,21,21,21,21,21,21,21,21,21,21,21,21,21,21,21,21,21,21,21,21,21,21,21,21,21,21,21,21,21,21,21,21,21,21,21,21,21,21,21,21,21,21,21,21,21,21,21,21,21,21,21,21,21,21,21,21,21,21"
dtnsim.node[20].app.size = "100,500,500,100,200,100,200,500,100,200,100,200,50,500,200,500,50,500,200,100,50,200,200,500,100,100,500,50,200,500,50,50,100,50,100,100,50,500,100,100,100,100,100,100,500,500,200,50,100,500,50,200,50,100,100,500,200,100,100,500,200,100,100,100,200,200,500,200,500,200,200,200,50,500,50,500,200,100,200,500,200,100,500,100,500,500,100,50,100,100,500,500,500,200,200,200,500,200,500,500"
# Node 21 random conversational traffic
dtnsim.node[21].app.enable = true
dtnsim.node[21].app.bundlesNumber = "3,1,4,2,3,3,1,1,1,5,3,4,3,1,5,4,3,2,2,5,2,5,5,1,1,2,3,2,5,4,1,1,2,3,3,1,2,1,5,2,5,3,2,4,4,2,5,5,1,1,2,4,2,5,3,4,5,5,3,4,1,4,5,3,1,1,2,2,3,4,4,3,4,4,3,4,3,1,1,3,5,1,3,2,2,4,2,4,4,5,1,5,4,1,2,3,2,5,5,1"
dtnsim.node[21].app.start = "84,56,20,19,36,40,28,72,54,56,73,44,64,10,100,76,49,36,88,91,22,82,84,94,66,22,61,46,37,100,51,56,39,45,94,46,70,21,29,98,54,9,53,37,25,57,97,40,51,50,4,92,92,19,80,100,77,42,59,43,98,58,100,12,14,11,28,62,85,82,58,98,84,28,49,28,32,61,56,60,44,20,5,84,47,58,77,90,66,41,57,61,18,73,79,2,78,46,7,54"
dtnsim.node[21].app.destinationEid = "20,20,20,20,20,20,20,20,20,20,20,20,20,20,20,20,20,20,20,20,20,20,20,20,20,20,20,20,20,20,20,20,20,20,20,20,20,20,20,22,22,22,22,22,22,22,22,22,22,22,22,22,22,22,22,22,22,22,22,22,22,22,22,22,22,22,22,22,22,22,22,22,22,22,22,22,22,22,22,22,22,22,22,22,22,22,22,22,22,22,22,22,22,22,22,22,22,22,22,22"
dtnsim.node[21].app.size = "200,500,100,200,200,100,500,200,200,100,500,100,100,50,200,100,100,100,200,500,100,500,200,50,50,100,200,100,200,200,100,500,500,50,100,200,200,500,500,100,100,50,100,200,100,100,200,200,500,100,50,200,100,50,200,50,200,500,500,100,100,50,100,500,50,200,50,50,200,100,500,500,200,100,100,500,200,50,100,100,500,100,50,500,100,500,500,200,500,500,50,50,200,50,500,100,100,50,200,200"
# Node 22 random conversational traffic
dtnsim.node[22].app.enable = true
dtnsim.node[22].app.bundlesNumber = "3,2,2,4,5,3,3,1,1,3,4,3,3,2,4,4,5,3,3,2,2,1,2,3,1,4,4,5,2,5,1,1,4,2,5,4,1,2,3,5,5,3,2,3,4,2,1,3,5,3,3,5,3,4,2,4,4,2,1,4,4,4,3,3,2,5,5,3,1,2,4,3,3,4,2,1,5,1,4,2,2,5,5,5,5,5,5,5,3,3,2,5,1,2,4,1,3,1,1,3"
dtnsim.node[22].app.start = "99,61,19,31,63,100,57,59,9,100,96,81,51,63,52,100,63,100,20,19,32,88,85,64,100,86,36,59,35,39,71,57,12,88,56,68,86,92,68,62,79,81,7,84,50,16,59,19,72,80,54,24,69,71,93,58,86,94,26,71,100,65,32,95,96,24,44,2,89,95,45,59,23,80,88,73,88,12,12,4,14,13,83,68,29,7,31,3,77,65,94,81,90,63,21,27,87,20,51,74"
dtnsim.node[22].app.destinationEid = "21,21,21,21,21,21,21,21,21,21,21,21,21,21,21,21,21,21,21,21,21,21,21,21,21,21,21,21,21,21,21,21,21,21,21,21,21,21,21,21,21,21,21,21,21,21,21,23,23,23,23,23,23,23,23,23,23,23,23,23,23,23,23,23,23,23,23,23,23,23,23,23,23,23,23,23,23,23,23,23,23,23,23,23,23,23,23,23,23,23,23,23,23,23,23,23,23,23,23,23"