[General]
network = src.dtnsim										
repeat = 1
allow-object-stealing-on-deletion = true

# Simulation end time
sim-time-limit = 84600s

# Nodes quantity (identifiers (EiDs) matches their index, EiD=0 is ignored)			
dtnsim.nodesNumber = 180
dtnsim.node[*].icon = "satellite"

# Nodes's failure rates
dtnsim.node[*].fault.enable = true
dtnsim.node[*].fault.meanTTF = 90s
dtnsim.node[*].fault.meanTTR = 10s

# Mobility
dtnsim.node[*].hasMobility = true
dtnsim.node[*].noradModule.satIndex = parentIndex()
dtnsim.node[*].noradModule.satName = "sat"
**.updateInterval = 20s
**.numOfSats = 180
**.satPerPlane = 15
**.altitude = 540
**.planes = 12
**.phaseOffset = 7

dtnsim.node[*].dtn.routing = "antop"
dtnsim.node[*].dtn.printRoutingDebug = true

# --- Random Traffic Configuration ---
# Node 1 random traffic
dtnsim.node[1].app.enable = true
dtnsim.node[1].app.bundlesNumber = "1,1,1,1,1,1,1,1,1,1,1,1,1,1,1,1,1,1,1,1,1,1,1,1,1,1,1,1,1,1,1,1,1,1,1,1,1,1,1,1,1,1,1,1,1,1,1,1,1,1,1,1,1,1,1,1,1,1,1,1,1,1,1,1,1,1,1,1,1,1,1,1,1,1,1,1,1,1,1,1,1,1,1,1,1,1,1,1,1,1,1,1,1,1,1,1,1,1,1,1"
dtnsim.node[1].app.start = "9,8,12,11,4,13,7,7,18,11,13,16,13,3,6,16,17,8,1,2,20,14,5,17,7,5,1,3,6,10,5,8,15,14,3,13,10,19,16,12,2,18,9,19,4,2,3,14,12,13,17,5,19,13,20,11,3,6,5,16,6,6,17,20,19,9,12,1,4,11,16,18,14,3,3,10,13,1,10,6,6,14,17,4,18,13,11,1,9,5,14,10,6,20,13,16,3,5,14,6"
dtnsim.node[1].app.destinationEid = "160,78,21,62,112,27,33,143,118,148,168,137,90,84,109,63,56,137,27,16,18,145,130,23,96,95,40,139,47,166,97,101,69,139,124,52,116,176,171,97,81,14,131,111,63,179,68,110,142,37,170,16,155,86,116,47,22,59,170,119,179,143,65,101,88,40,100,131,11,165,152,98,88,163,14,118,135,149,150,3,67,43,35,144,99,172,138,112,131,59,123,16,59,144,103,65,146,13,103,57"
dtnsim.node[1].app.size = "500,500,50,500,100,50,50,200,100,500,50,500,500,50,500,200,200,100,100,500,100,500,100,200,100,200,500,200,100,500,50,200,100,500,100,200,100,200,100,500,100,50,500,200,50,50,50,50,200,100,500,200,100,500,100,50,100,500,100,200,50,100,200,500,50,100,200,200,50,500,200,200,100,500,100,500,100,500,100,100,200,50,500,500,50,200,200,200,50,500,100,50,100,50,50,200,200,500,200,200"
        # Node 2 random traffic
dtnsim.node[2].app.enable = true
dtnsim.node[2].app.bundlesNumber = "1,1,1,1,1,1,1,1,1,1,1,1,1,1,1,1,1,1,1,1,1,1,1,1,1,1,1,1,1,1,1,1,1,1,1,1,1,1,1,1,1,1,1,1,1,1,1,1,1,1,1,1,1,1,1,1,1,1,1,1,1,1,1,1,1,1,1,1,1,1,1,1,1,1,1,1,1,1,1,1,1,1,1,1,1,1,1,1,1,1,1,1,1,1,1,1,1,1,1,1"
dtnsim.node[2].app.start = "8,6,4,17,14,10,14,19,8,3,2,2,6,19,15,15,17,5,5,2,1,11,11,10,15,10,6,14,13,4,9,11,5,5,4,19,10,9,19,4,16,14,16,17,5,12,8,19,5,2,7,17,14,19,3,5,1,7,7,12,3,7,16,18,11,10,10,10,11,12,19,8,7,13,13,14,5,18,5,14,12,11,2,13,12,12,4,20,11,20,4,9,12,17,17,13,4,2,12,2"
dtnsim.node[2].app.destinationEid = "179,173,152,19,154,48,165,59,121,103,31,91,13,153,97,56,161,147,167,78,172,125,112,54,150,161,85,88,150,8,155,76,83,42,116,126,62,9,5,130,86,41,81,175,120,151,89,99,12,159,61,167,114,161,62,156,51,149,30,116,55,150,113,118,38,136,25,42,125,144,115,104,112,13,108,6,23,164,46,51,125,177,87,85,123,88,104,159,128,145,31,58,176,81,3,25,24,144,100,31"
dtnsim.node[2].app.size = "500,50,200,200,50,50,500,200,200,200,200,500,200,50,50,500,100,100,50,200,500,50,50,500,100,50,100,500,50,100,100,500,200,200,500,100,50,200,200,100,50,50,200,100,100,500,500,200,500,100,200,50,50,500,100,100,50,200,500,50,200,500,50,500,200,100,500,50,500,200,500,100,100,100,200,200,200,500,200,200,100,100,500,100,50,200,500,200,100,100,200,200,100,500,500,200,50,500,500,200"
        # Node 3 random traffic
dtnsim.node[3].app.enable = true
dtnsim.node[3].app.bundlesNumber = "1,1,1,1,1,1,1,1,1,1,1,1,1,1,1,1,1,1,1,1,1,1,1,1,1,1,1,1,1,1,1,1,1,1,1,1,1,1,1,1,1,1,1,1,1,1,1,1,1,1,1,1,1,1,1,1,1,1,1,1,1,1,1,1,1,1,1,1,1,1,1,1,1,1,1,1,1,1,1,1,1,1,1,1,1,1,1,1,1,1,1,1,1,1,1,1,1,1,1,1"
dtnsim.node[3].app.start = "9,13,20,2,4,13,20,19,7,1,10,1,12,10,15,18,8,2,2,5,19,17,18,19,15,13,2,18,6,4,14,14,19,18,10,11,5,15,3,10,19,20,2,12,14,12,19,2,5,2,19,7,14,16,11,4,19,20,10,19,11,10,19,6,6,18,7,19,4,7,1,16,17,14,7,6,10,6,12,5,13,11,2,15,16,5,16,2,16,13,16,14,7,6,18,3,9,14,14,6"
dtnsim.node[3].app.destinationEid = "29,74,84,138,89,12,138,170,178,19,93,166,180,80,18,5,45,8,116,26,168,164,107,41,63,111,19,166,34,32,165,13,165,177,40,56,77,173,91,42,51,53,67,143,76,20,7,145,88,132,88,177,98,150,56,34,25,75,54,171,113,127,156,142,78,81,41,48,118,114,72,22,38,160,22,51,150,113,119,84,122,83,177,177,49,12,131,55,15,123,133,85,43,164,93,84,128,174,96,114"
dtnsim.node[3].app.size = "500,100,50,200,500,100,500,200,500,200,200,500,100,50,500,500,100,200,50,500,100,500,100,500,100,100,200,50,100,50,100,100,50,100,50,200,200,200,100,100,200,50,100,500,200,500,500,100,500,200,100,100,200,50,200,50,50,200,500,500,100,200,50,50,500,50,100,500,500,500,50,100,50,50,50,100,50,50,50,500,50,50,500,500,200,100,100,200,100,100,200,500,50,500,50,200,200,200,200,50"
        # Node 4 random traffic
dtnsim.node[4].app.enable = true
dtnsim.node[4].app.bundlesNumber = "1,1,1,1,1,1,1,1,1,1,1,1,1,1,1,1,1,1,1,1,1,1,1,1,1,1,1,1,1,1,1,1,1,1,1,1,1,1,1,1,1,1,1,1,1,1,1,1,1,1,1,1,1,1,1,1,1,1,1,1,1,1,1,1,1,1,1,1,1,1,1,1,1,1,1,1,1,1,1,1,1,1,1,1,1,1,1,1,1,1,1,1,1,1,1,1,1,1,1,1"
dtnsim.node[4].app.start = "11,18,11,18,18,13,12,2,2,3,7,8,13,1,14,6,9,2,9,8,4,3,18,6,20,10,8,4,19,19,15,17,7,14,14,17,2,5,16,8,9,2,2,2,10,18,8,8,15,6,18,20,14,19,2,13,11,20,16,20,6,10,16,20,20,9,12,5,2,12,5,3,7,15,3,5,17,11,8,2,4,10,10,11,18,12,1,14,11,14,5,7,10,13,9,10,17,18,18,2"
dtnsim.node[4].app.destinationEid = "128,179,63,63,9,136,149,69,32,92,22,6,152,141,17,48,155,88,22,122,12,141,86,124,47,49,106,135,34,38,52,46,176,105,177,25,116,122,6,74,120,35,112,165,27,156,152,46,11,25,54,160,22,61,24,20,160,173,141,76,120,28,14,37,79,137,59,167,138,173,2,116,172,123,44,154,153,59,63,87,122,136,70,162,28,143,172,31,48,78,88,94,148,123,83,53,169,18,25,58"
dtnsim.node[4].app.size = "500,500,100,50,200,200,500,200,100,200,100,200,50,500,100,50,50,100,500,500,500,500,50,100,50,500,50,200,100,200,50,500,500,200,50,50,50,500,100,200,100,500,500,200,50,200,50,50,200,50,100,200,50,500,500,100,500,100,200,100,50,200,100,500,50,50,100,50,500,50,200,200,200,100,50,50,100,500,50,100,200,500,200,50,200,100,100,50,100,100,200,500,100,100,500,500,500,100,500,500"
        # Node 5 random traffic
dtnsim.node[5].app.enable = true
dtnsim.node[5].app.bundlesNumber = "1,1,1,1,1,1,1,1,1,1,1,1,1,1,1,1,1,1,1,1,1,1,1,1,1,1,1,1,1,1,1,1,1,1,1,1,1,1,1,1,1,1,1,1,1,1,1,1,1,1,1,1,1,1,1,1,1,1,1,1,1,1,1,1,1,1,1,1,1,1,1,1,1,1,1,1,1,1,1,1,1,1,1,1,1,1,1,1,1,1,1,1,1,1,1,1,1,1,1,1"
dtnsim.node[5].app.start = "1,18,14,20,16,8,16,12,9,12,5,16,2,19,13,16,13,13,17,3,18,1,9,19,1,8,8,14,8,1,6,17,16,19,3,6,8,4,20,12,18,2,12,19,12,8,2,12,9,20,5,7,16,9,18,10,9,19,5,14,18,12,10,15,14,3,7,17,3,19,10,10,14,20,7,14,6,16,3,19,10,6,10,15,10,12,6,8,14,5,20,9,20,17,18,2,6,18,17,16"
dtnsim.node[5].app.destinationEid = "95,145,41,100,129,9,128,67,55,121,132,135,142,128,105,73,153,147,72,87,152,10,79,90,37,122,158,179,14,125,99,15,74,169,134,17,15,100,128,73,128,64,157,121,124,62,42,29,84,160,115,94,98,10,134,23,116,131,47,153,29,98,52,116,164,128,34,27,124,148,161,134,142,60,66,130,27,99,46,115,116,136,55,4,45,27,91,41,75,178,98,176,91,24,111,42,19,77,172,92"
dtnsim.node[5].app.size = "50,50,200,500,100,500,100,500,50,200,200,100,200,100,50,50,50,500,50,200,500,200,100,100,100,50,100,200,200,200,200,500,50,200,50,500,50,100,500,100,500,200,500,50,50,500,200,200,500,50,100,200,200,200,500,50,100,500,500,50,200,50,100,100,50,100,50,500,200,500,200,50,500,50,500,500,500,500,200,50,50,200,500,100,50,200,500,100,500,500,50,100,50,200,50,50,200,200,100,50"
        # Node 6 random traffic
dtnsim.node[6].app.enable = true
dtnsim.node[6].app.bundlesNumber = "1,1,1,1,1,1,1,1,1,1,1,1,1,1,1,1,1,1,1,1,1,1,1,1,1,1,1,1,1,1,1,1,1,1,1,1,1,1,1,1,1,1,1,1,1,1,1,1,1,1,1,1,1,1,1,1,1,1,1,1,1,1,1,1,1,1,1,1,1,1,1,1,1,1,1,1,1,1,1,1,1,1,1,1,1,1,1,1,1,1,1,1,1,1,1,1,1,1,1,1"
dtnsim.node[6].app.start = "14,11,17,10,3,15,1,15,19,4,5,18,7,6,6,17,12,11,7,16,5,19,11,9,3,14,13,11,18,6,9,10,16,8,12,20,12,9,2,19,15,12,6,18,19,14,6,9,11,20,15,17,16,20,3,2,9,10,16,16,1,1,15,17,2,3,20,15,15,10,3,12,2,10,12,13,3,10,19,13,9,13,3,5,18,17,6,13,9,12,10,20,18,4,4,9,14,5,10,17"
dtnsim.node[6].app.destinationEid = "126,168,80,159,71,56,1,40,69,162,23,115,94,166,95,82,129,158,72,33,13,136,162,53,168,82,52,91,82,160,58,136,90,155,141,36,72,155,125,34,38,166,48,149,48,5,155,58,73,75,13,53,61,139,107,133,114,97,77,40,38,24,86,3,179,15,118,8,133,42,25,131,2,106,140,54,33,21,47,43,179,56,2,71,22,57,115,61,1,149,117,34,112,58,12,33,125,51,78,120"
dtnsim.node[6].app.size = "100,50,50,100,50,50,500,100,200,500,50,200,500,500,100,100,50,200,200,500,500,100,500,100,500,50,500,100,50,500,100,50,100,500,100,500,50,200,50,500,100,200,200,200,100,50,100,200,50,50,200,50,50,200,50,200,50,50,100,200,500,500,200,100,500,100,500,50,200,50,200,100,200,200,100,100,50,500,50,200,100,200,100,100,100,200,100,50,100,100,100,100,50,200,200,100,100,200,200,200"
        # Node 7 random traffic
dtnsim.node[7].app.enable = true
dtnsim.node[7].app.bundlesNumber = "1,1,1,1,1,1,1,1,1,1,1,1,1,1,1,1,1,1,1,1,1,1,1,1,1,1,1,1,1,1,1,1,1,1,1,1,1,1,1,1,1,1,1,1,1,1,1,1,1,1,1,1,1,1,1,1,1,1,1,1,1,1,1,1,1,1,1,1,1,1,1,1,1,1,1,1,1,1,1,1,1,1,1,1,1,1,1,1,1,1,1,1,1,1,1,1,1,1,1,1"
dtnsim.node[7].app.start = "19,5,7,20,3,6,6,12,20,1,2,1,16,4,8,10,14,5,7,20,13,6,9,2,4,4,7,5,3,6,16,17,20,14,11,7,12,20,8,9,15,5,1,14,5,20,18,14,6,19,9,8,15,4,2,5,3,4,2,14,6,7,3,4,20,14,7,14,10,3,13,8,6,9,11,7,9,11,8,14,19,3,3,16,9,19,19,8,6,20,10,15,17,4,3,18,11,19,7,19"
dtnsim.node[7].app.destinationEid = "160,21,125,117,175,95,174,104,121,168,77,11,40,123,80,136,25,114,155,25,65,15,9,53,68,108,87,4,73,173,120,101,32,180,107,31,45,91,77,86,13,134,163,84,73,94,35,141,3,101,121,14,96,52,173,127,172,80,65,179,112,48,81,142,27,20,25,107,79,139,91,42,60,81,80,70,19,43,48,178,150,155,169,10,55,76,41,55,103,106,57,162,37,88,108,175,45,114,58,78"
dtnsim.node[7].app.size = "500,100,50,50,100,500,200,200,200,200,100,50,100,100,100,500,50,200,500,50,200,200,200,50,200,50,200,500,50,200,100,500,100,500,200,50,100,500,500,500,100,200,50,500,100,500,500,200,500,100,500,50,500,500,500,500,200,100,500,200,200,50,100,500,50,50,500,500,100,500,200,500,200,500,500,50,200,100,200,500,100,100,100,50,100,50,50,100,100,200,500,500,200,200,500,100,500,50,200,100"
        # Node 8 random traffic
dtnsim.node[8].app.enable = true
dtnsim.node[8].app.bundlesNumber = "1,1,1,1,1,1,1,1,1,1,1,1,1,1,1,1,1,1,1,1,1,1,1,1,1,1,1,1,1,1,1,1,1,1,1,1,1,1,1,1,1,1,1,1,1,1,1,1,1,1,1,1,1,1,1,1,1,1,1,1,1,1,1,1,1,1,1,1,1,1,1,1,1,1,1,1,1,1,1,1,1,1,1,1,1,1,1,1,1,1,1,1,1,1,1,1,1,1,1,1"
dtnsim.node[8].app.start = "7,13,3,14,7,16,14,8,16,17,18,12,20,8,8,15,17,14,6,15,18,13,5,11,10,10,3,18,16,6,14,14,13,10,15,5,20,10,4,15,7,13,3,9,14,9,2,14,7,16,3,10,1,13,11,13,1,11,19,5,3,14,2,10,15,9,5,8,10,14,3,19,11,9,1,11,13,14,5,20,4,16,3,14,9,3,11,16,17,13,14,11,17,1,3,18,6,16,13,17"
dtnsim.node[8].app.destinationEid = "73,142,57,141,96,9,58,137,120,119,20,145,74,65,114,34,19,108,77,177,167,43,122,120,45,86,4,173,81,33,19,55,156,98,81,14,115,95,5,108,41,88,48,154,94,148,44,51,130,127,152,93,46,125,80,155,142,52,43,119,145,62,103,71,69,63,143,120,146,129,103,161,138,55,58,56,90,175,120,142,169,61,46,57,46,71,36,124,170,15,175,180,77,51,132,68,37,86,148,108"
dtnsim.node[8].app.size = "200,200,100,50,500,500,50,500,200,50,100,500,500,500,100,200,100,200,200,500,200,100,200,50,50,200,100,50,500,100,100,50,100,50,100,500,500,50,50,50,50,100,200,200,500,500,50,50,50,50,200,50,50,100,50,200,50,50,100,500,50,50,50,500,50,200,200,50,500,200,50,200,500,500,100,50,100,50,50,50,200,500,500,200,100,100,100,200,100,50,100,200,200,50,500,500,100,100,200,200"
        # Node 9 random traffic
dtnsim.node[9].app.enable = true
dtnsim.node[9].app.bundlesNumber = "1,1,1,1,1,1,1,1,1,1,1,1,1,1,1,1,1,1,1,1,1,1,1,1,1,1,1,1,1,1,1,1,1,1,1,1,1,1,1,1,1,1,1,1,1,1,1,1,1,1,1,1,1,1,1,1,1,1,1,1,1,1,1,1,1,1,1,1,1,1,1,1,1,1,1,1,1,1,1,1,1,1,1,1,1,1,1,1,1,1,1,1,1,1,1,1,1,1,1,1"
dtnsim.node[9].app.start = "12,5,9,3,9,19,13,2,6,10,4,11,15,5,19,20,2,7,18,20,10,19,18,8,1,18,5,20,17,14,17,15,4,18,20,14,10,14,17,20,8,8,16,9,20,3,19,17,16,11,6,16,8,9,19,19,20,9,15,11,1,18,10,1,18,1,10,17,16,13,14,15,16,19,16,7,14,4,6,3,9,13,6,6,8,3,13,15,13,17,10,19,13,11,17,3,10,12,5,18"
dtnsim.node[9].app.destinationEid = "115,66,81,69,1,143,71,94,43,86,128,13,167,52,35,119,91,135,39,36,15,137,31,20,50,30,33,19,86,12,127,137,83,39,10,98,120,36,13,145,24,157,65,139,121,124,22,79,76,74,105,58,99,76,68,21,97,12,99,80,95,106,61,107,12,169,39,35,86,121,1,42,150,180,154,65,86,152,168,175,27,115,85,131,177,116,100,146,131,176,150,56,118,26,116,49,78,34,78,19"
dtnsim.node[9].app.size = "100,100,200,200,50,500,200,50,200,200,100,50,100,500,50,50,500,50,100,500,200,500,500,100,100,200,200,100,200,200,200,200,100,100,100,100,50,100,100,100,100,500,200,200,100,200,200,200,100,200,50,200,200,200,500,50,100,500,100,500,50,100,100,100,100,500,200,500,100,500,500,500,500,100,100,50,500,100,200,50,100,200,200,50,50,500,200,100,500,100,500,500,200,100,100,200,500,100,50,50"
        # Node 10 random traffic
dtnsim.node[10].app.enable = true
dtnsim.node[10].app.bundlesNumber = "1,1,1,1,1,1,1,1,1,1,1,1,1,1,1,1,1,1,1,1,1,1,1,1,1,1,1,1,1,1,1,1,1,1,1,1,1,1,1,1,1,1,1,1,1,1,1,1,1,1,1,1,1,1,1,1,1,1,1,1,1,1,1,1,1,1,1,1,1,1,1,1,1,1,1,1,1,1,1,1,1,1,1,1,1,1,1,1,1,1,1,1,1,1,1,1,1,1,1,1"
dtnsim.node[10].app.start = "8,20,15,19,10,13,12,14,2,20,1,4,3,18,15,13,7,10,11,16,6,11,8,1,13,2,6,18,20,1,11,20,13,17,15,13,20,5,17,13,19,11,10,5,10,3,12,5,19,15,9,16,7,7,8,8,1,1,4,9,20,15,17,5,8,12,8,5,10,12,4,12,12,20,18,6,17,11,13,6,16,9,14,4,17,19,20,1,13,18,7,4,18,20,5,2,18,15,1,6"
dtnsim.node[10].app.destinationEid = "15,161,31,30,177,3,126,118,22,11,112,19,74,20,141,129,31,74,139,15,47,135,99,2,35,29,137,90,58,21,110,29,178,61,50,21,156,81,7,31,64,163,174,123,88,132,89,59,132,15,87,106,3,94,85,155,161,18,94,101,5,61,111,2,129,65,128,171,155,95,134,112,178,154,28,152,11,9,156,171,46,62,109,52,150,27,164,49,136,116,68,100,169,173,47,55,141,178,177,35"
dtnsim.node[10].app.size = "500,200,50,200,500,500,500,200,200,500,100,100,50,50,200,100,100,200,50,100,500,200,200,100,500,100,50,100,200,200,200,500,200,50,100,100,100,500,100,100,50,50,100,200,500,100,50,200,500,500,50,200,100,200,200,500,50,50,200,100,50,50,50,200,100,100,100,50,100,100,50,50,100,500,100,100,500,50,500,500,200,50,50,500,100,200,200,100,200,500,50,500,200,500,500,200,100,200,100,500"
        # Node 11 random traffic
dtnsim.node[11].app.enable = true
dtnsim.node[11].app.bundlesNumber = "1,1,1,1,1,1,1,1,1,1,1,1,1,1,1,1,1,1,1,1,1,1,1,1,1,1,1,1,1,1,1,1,1,1,1,1,1,1,1,1,1,1,1,1,1,1,1,1,1,1,1,1,1,1,1,1,1,1,1,1,1,1,1,1,1,1,1,1,1,1,1,1,1,1,1,1,1,1,1,1,1,1,1,1,1,1,1,1,1,1,1,1,1,1,1,1,1,1,1,1"
dtnsim.node[11].app.start = "17,1,20,8,11,15,3,16,16,14,16,14,3,18,8,13,6,12,9,17,8,3,15,14,16,12,14,3,17,2,5,20,13,18,9,20,5,2,9,17,5,18,7,5,9,8,6,12,17,5,6,7,7,2,11,16,11,13,19,6,15,6,7,9,14,7,8,4,5,7,19,11,20,12,20,11,3,13,14,14,20,15,2,14,1,3,7,10,3,15,12,18,16,15,17,17,8,12,14,3"
dtnsim.node[11].app.destinationEid = "7,54,42,171,20,164,177,74,34,142,138,2,30,145,158,139,90,141,60,5,6,131,163,23,59,26,16,119,171,74,74,180,91,177,83,143,129,134,70,56,6,153,2,76,159,29,56,164,127,72,141,131,169,26,87,165,121,43,145,133,106,98,129,171,110,82,25,63,110,176,30,99,34,165,29,165,169,95,134,105,154,84,168,171,94,24,179,175,2,137,57,120,104,138,70,128,36,33,47,67"
dtnsim.node[11].app.size = "200,50,50,50,50,100,200,500,200,100,50,50,200,500,100,100,200,50,100,500,500,100,100,500,50,500,200,100,100,500,200,500,200,100,500,100,50,500,200,50,500,50,200,500,100,500,500,200,100,50,50,100,500,100,500,100,200,200,50,500,500,500,100,100,200,100,100,100,50,500,200,50,50,500,50,200,50,50,100,500,500,500,50,100,200,200,100,500,50,50,50,50,50,200,500,500,500,200,50,200"
        # Node 12 random traffic
dtnsim.node[12].app.enable = true
dtnsim.node[12].app.bundlesNumber = "1,1,1,1,1,1,1,1,1,1,1,1,1,1,1,1,1,1,1,1,1,1,1,1,1,1,1,1,1,1,1,1,1,1,1,1,1,1,1,1,1,1,1,1,1,1,1,1,1,1,1,1,1,1,1,1,1,1,1,1,1,1,1,1,1,1,1,1,1,1,1,1,1,1,1,1,1,1,1,1,1,1,1,1,1,1,1,1,1,1,1,1,1,1,1,1,1,1,1,1"
dtnsim.node[12].app.start = "18,7,18,18,18,20,7,3,4,18,7,5,10,2,8,7,17,2,4,18,17,18,8,10,2,6,10,6,5,13,7,17,3,2,14,5,14,13,12,12,10,16,12,13,1,17,12,14,19,18,12,16,20,12,8,5,15,2,2,13,2,20,13,10,9,9,17,4,13,14,4,18,4,6,20,7,14,8,12,9,2,7,1,17,15,10,5,13,6,7,15,15,15,8,12,13,19,12,7,8"
dtnsim.node[12].app.destinationEid = "101,90,47,174,38,5,30,136,42,98,77,51,56,139,26,133,40,7,168,92,106,79,173,38,22,30,75,10,149,140,119,83,66,10,179,69,151,27,154,120,26,148,51,11,117,153,74,140,174,72,166,92,36,70,165,87,80,38,61,8,86,107,57,2,120,88,16,98,74,46,8,148,149,23,4,54,68,140,89,131,65,35,23,59,56,60,163,50,86,119,54,74,112,113,146,42,174,48,39,104"
dtnsim.node[12].app.size = "500,100,50,500,500,100,200,200,200,200,100,500,500,200,50,500,500,500,100,50,500,50,500,100,50,500,50,200,50,500,50,200,50,50,100,50,200,500,500,200,200,200,200,500,100,200,200,50,50,500,500,200,200,500,200,200,50,100,50,50,100,200,500,50,200,200,50,200,100,500,100,50,500,50,100,50,100,200,100,200,50,100,50,100,500,100,200,200,100,500,100,100,50,50,500,50,50,500,200,100"
        # Node 13 random traffic
dtnsim.node[13].app.enable = true
dtnsim.node[13].app.bundlesNumber = "1,1,1,1,1,1,1,1,1,1,1,1,1,1,1,1,1,1,1,1,1,1,1,1,1,1,1,1,1,1,1,1,1,1,1,1,1,1,1,1,1,1,1,1,1,1,1,1,1,1,1,1,1,1,1,1,1,1,1,1,1,1,1,1,1,1,1,1,1,1,1,1,1,1,1,1,1,1,1,1,1,1,1,1,1,1,1,1,1,1,1,1,1,1,1,1,1,1,1,1"
dtnsim.node[13].app.start = "11,16,4,2,14,5,16,10,19,2,16,20,14,17,8,17,13,1,15,7,12,13,7,17,19,20,5,12,4,16,15,11,8,12,15,9,3,17,13,20,12,20,20,11,7,16,1,8,17,8,6,17,17,9,11,15,4,19,1,18,8,13,19,10,2,11,3,5,10,1,15,11,19,11,4,2,13,8,3,5,5,7,14,4,8,17,8,1,9,15,19,17,7,9,5,13,7,7,11,17"
dtnsim.node[13].app.destinationEid = "167,133,146,114,167,106,21,170,142,176,63,92,12,46,123,162,121,85,47,111,93,81,160,164,92,166,55,23,2,62,50,51,86,67,148,156,101,27,74,57,100,112,164,154,68,154,72,4,24,23,88,164,20,169,100,116,88,1,115,180,65,119,21,41,60,94,73,33,150,52,4,118,35,125,39,109,158,127,145,59,18,69,116,108,22,28,171,120,39,169,16,64,134,102,134,5,77,91,178,164"
dtnsim.node[13].app.size = "100,200,100,100,50,500,100,100,100,100,50,500,500,50,200,200,200,500,50,200,200,50,200,200,500,50,50,100,100,100,100,100,100,200,500,100,500,100,500,500,50,500,50,200,50,200,500,500,50,50,50,500,500,200,100,100,100,50,100,200,200,500,500,200,100,200,200,50,100,500,200,50,500,500,50,500,200,200,100,100,50,200,50,500,100,200,500,500,500,100,50,500,500,50,500,100,500,50,200,100"
        # Node 14 random traffic
dtnsim.node[14].app.enable = true
dtnsim.node[14].app.bundlesNumber = "1,1,1,1,1,1,1,1,1,1,1,1,1,1,1,1,1,1,1,1,1,1,1,1,1,1,1,1,1,1,1,1,1,1,1,1,1,1,1,1,1,1,1,1,1,1,1,1,1,1,1,1,1,1,1,1,1,1,1,1,1,1,1,1,1,1,1,1,1,1,1,1,1,1,1,1,1,1,1,1,1,1,1,1,1,1,1,1,1,1,1,1,1,1,1,1,1,1,1,1"
dtnsim.node[14].app.start = "11,14,20,9,6,2,4,15,19,12,9,19,2,14,10,6,7,4,17,1,8,18,6,4,10,11,13,13,2,2,3,17,9,3,8,19,4,7,12,6,13,13,4,1,9,18,18,3,19,20,5,19,19,4,5,3,13,5,15,3,7,9,14,18,15,8,12,16,3,12,1,20,14,16,14,16,16,20,4,4,11,1,19,20,16,13,10,16,14,18,5,20,13,19,14,10,15,14,1,9"
dtnsim.node[14].app.destinationEid = "157,74,165,88,51,8,76,75,169,147,34,57,94,161,64,161,47,135,129,61,152,69,126,169,79,55,82,53,114,170,100,115,177,69,121,83,49,89,178,119,97,153,55,41,55,159,99,84,64,84,115,118,83,12,106,104,176,165,92,26,52,8,46,115,65,78,137,136,173,137,136,168,18,88,75,98,96,15,159,142,101,44,43,7,147,164,21,97,159,23,113,37,19,60,28,99,145,98,96,44"
dtnsim.node[14].app.size = "50,200,200,100,50,100,500,100,100,100,500,100,100,500,500,200,100,200,100,50,100,200,50,500,100,50,500,500,50,500,500,100,100,500,100,50,200,200,100,200,100,50,50,500,50,50,200,100,100,200,200,100,50,100,500,500,100,500,200,50,100,100,100,500,50,500,500,100,500,500,100,200,50,50,200,100,100,100,50,100,100,200,50,200,100,200,50,500,200,500,100,500,500,100,100,200,500,100,100,50"
        # Node 15 random traffic
dtnsim.node[15].app.enable = true
dtnsim.node[15].app.bundlesNumber = "1,1,1,1,1,1,1,1,1,1,1,1,1,1,1,1,1,1,1,1,1,1,1,1,1,1,1,1,1,1,1,1,1,1,1,1,1,1,1,1,1,1,1,1,1,1,1,1,1,1,1,1,1,1,1,1,1,1,1,1,1,1,1,1,1,1,1,1,1,1,1,1,1,1,1,1,1,1,1,1,1,1,1,1,1,1,1,1,1,1,1,1,1,1,1,1,1,1,1,1"
dtnsim.node[15].app.start = "9,18,5,3,11,10,1,3,14,1,1,18,14,1,3,13,15,3,8,2,2,6,7,9,18,12,18,1,4,6,17,19,18,10,12,6,10,13,13,6,14,10,19,8,6,14,1,6,13,2,2,13,13,20,20,14,9,7,18,3,18,11,14,18,2,7,5,12,5,8,1,5,3,12,17,7,17,12,7,12,10,7,7,15,1,17,18,1,15,7,12,14,12,7,6,14,18,6,9,11"
dtnsim.node[15].app.destinationEid = "103,48,167,111,67,35,94,4,9,41,156,150,13,136,64,175,88,117,89,116,34,135,1,43,69,55,114,62,175,96,133,156,164,2,1,67,113,98,152,11,62,27,19,62,6,148,132,133,41,2,27,83,90,93,116,134,99,80,110,91,179,97,93,70,133,56,75,180,22,92,160,167,179,61,177,175,79,34,156,145,148,68,25,159,118,146,154,130,68,126,126,161,81,29,163,171,165,175,43,121"
dtnsim.node[15].app.size = "500,50,50,200,200,100,100,50,50,100,200,200,500,100,200,50,100,500,500,50,50,200,50,200,100,100,100,500,50,100,200,100,50,100,100,200,50,100,500,500,100,50,200,500,200,500,500,100,50,500,200,500,500,500,50,50,500,100,500,50,500,200,100,200,100,500,50,500,100,500,500,100,200,200,500,100,100,100,100,50,200,200,200,50,50,100,100,500,100,50,100,200,200,500,100,100,500,200,200,500"
        # Node 16 random traffic
dtnsim.node[16].app.enable = true
dtnsim.node[16].app.bundlesNumber = "1,1,1,1,1,1,1,1,1,1,1,1,1,1,1,1,1,1,1,1,1,1,1,1,1,1,1,1,1,1,1,1,1,1,1,1,1,1,1,1,1,1,1,1,1,1,1,1,1,1,1,1,1,1,1,1,1,1,1,1,1,1,1,1,1,1,1,1,1,1,1,1,1,1,1,1,1,1,1,1,1,1,1,1,1,1,1,1,1,1,1,1,1,1,1,1,1,1,1,1"
dtnsim.node[16].app.start = "20,1,6,6,17,5,13,2,13,15,3,5,15,3,14,16,18,7,7,12,5,18,15,6,18,18,13,14,10,13,7,11,12,4,10,7,16,14,15,15,10,7,20,3,2,9,5,9,13,1,14,10,5,1,5,17,10,13,15,3,10,20,16,3,15,8,19,19,13,15,7,4,16,17,13,5,13,16,18,12,1,2,9,4,20,2,10,1,19,13,1,19,3,2,14,5,18,15,3,15"
dtnsim.node[16].app.destinationEid = "105,37,107,3,145,45,125,155,171,49,43,142,104,125,149,9,144,35,12,164,92,5,75,22,25,32,86,65,20,10,64,166,150,93,79,155,14,134,26,169,59,65,147,36,174,79,131,75,120,99,81,143,24,134,117,1,102,50,72,8,41,17,58,154,18,135,162,2,19,105,152,78,32,83,129,166,81,172,107,37,99,140,18,30,93,68,140,171,109,95,176,91,61,34,84,131,18,152,7,144"
dtnsim.node[16].app.size = "500,500,100,50,200,200,100,500,500,100,50,500,100,100,100,100,50,100,100,500,50,500,50,200,200,50,50,500,500,50,50,200,50,500,500,500,500,100,100,500,50,50,200,200,100,50,500,200,50,100,200,200,50,50,200,100,100,100,50,200,100,100,50,100,500,100,200,100,500,100,200,200,50,200,50,100,100,500,500,500,50,200,50,100,200,100,200,100,100,100,200,200,200,100,500,200,100,50,500,50"
        # Node 17 random traffic
dtnsim.node[17].app.enable = true
dtnsim.node[17].app.bundlesNumber = "1,1,1,1,1,1,1,1,1,1,1,1,1,1,1,1,1,1,1,1,1,1,1,1,1,1,1,1,1,1,1,1,1,1,1,1,1,1,1,1,1,1,1,1,1,1,1,1,1,1,1,1,1,1,1,1,1,1,1,1,1,1,1,1,1,1,1,1,1,1,1,1,1,1,1,1,1,1,1,1,1,1,1,1,1,1,1,1,1,1,1,1,1,1,1,1,1,1,1,1"
dtnsim.node[17].app.start = "12,16,16,7,10,9,19,8,6,9,1,14,18,15,12,4,16,20,3,11,11,13,19,1,6,6,19,14,14,7,13,7,4,14,5,15,7,6,18,17,3,4,5,7,17,11,12,20,2,19,4,11,12,8,13,16,2,10,9,3,20,11,1,8,11,3,7,9,20,8,9,13,7,1,13,17,8,8,7,2,6,11,11,9,5,10,20,9,6,16,16,15,4,20,17,7,7,2,5,14"
dtnsim.node[17].app.destinationEid = "152,125,130,93,170,35,46,59,101,124,140,94,33,93,16,119,78,55,6,21,124,57,50,33,62,163,3,118,83,79,159,121,153,51,166,125,163,132,152,106,20,72,150,16,20,125,123,20,141,93,29,79,143,79,174,155,12,91,77,65,127,8,42,73,80,100,88,86,134,86,143,163,146,103,133,65,177,164,110,57,168,179,26,30,28,102,161,103,77,170,33,135,97,121,47,69,39,9,170,21"
dtnsim.node[17].app.size = "500,50,50,200,100,500,500,100,100,500,50,200,50,100,100,500,100,100,100,100,200,100,100,500,200,100,100,50,100,500,500,50,500,500,50,50,50,50,200,200,200,200,500,500,100,200,200,200,100,500,200,200,200,500,200,500,50,50,50,200,50,500,500,100,50,100,200,50,200,500,100,100,200,50,100,100,50,50,500,200,50,50,50,500,100,500,500,50,500,500,100,200,100,500,500,50,100,100,200,100"
        # Node 18 random traffic
dtnsim.node[18].app.enable = true
dtnsim.node[18].app.bundlesNumber = "1,1,1,1,1,1,1,1,1,1,1,1,1,1,1,1,1,1,1,1,1,1,1,1,1,1,1,1,1,1,1,1,1,1,1,1,1,1,1,1,1,1,1,1,1,1,1,1,1,1,1,1,1,1,1,1,1,1,1,1,1,1,1,1,1,1,1,1,1,1,1,1,1,1,1,1,1,1,1,1,1,1,1,1,1,1,1,1,1,1,1,1,1,1,1,1,1,1,1,1"
dtnsim.node[18].app.start = "14,20,16,1,8,3,16,18,20,14,14,2,7,11,9,5,16,8,15,1,18,14,20,5,18,5,2,20,9,13,6,16,18,7,3,2,18,15,2,7,2,17,7,11,19,13,3,5,2,10,14,11,15,6,14,1,20,18,2,11,16,18,14,4,9,5,7,15,9,2,20,4,15,6,3,2,15,5,14,8,19,10,14,1,18,14,20,4,12,5,5,19,11,10,8,17,16,6,15,18"
dtnsim.node[18].app.destinationEid = "86,30,30,89,113,176,40,11,44,179,97,119,102,86,131,147,88,43,97,21,81,174,25,17,115,13,28,27,129,21,19,134,137,97,63,59,94,101,160,65,129,143,58,16,23,122,14,176,78,36,21,73,92,156,96,103,121,3,67,71,109,131,99,47,109,22,11,104,58,168,48,140,9,151,32,53,40,176,17,56,30,81,91,155,116,85,12,98,121,21,30,32,66,106,157,166,27,48,85,106"
dtnsim.node[18].app.size = "500,200,100,500,100,200,50,50,100,100,50,200,100,500,50,200,100,100,50,100,50,200,200,50,500,200,500,100,200,50,500,50,200,50,100,500,50,500,50,100,100,200,200,50,100,100,200,200,200,50,500,200,50,100,100,100,200,100,500,100,200,100,500,500,50,100,50,50,50,500,500,500,50,50,50,50,100,100,100,50,50,100,200,200,50,50,50,500,500,500,200,500,100,200,100,50,500,50,200,500"
        # Node 19 random traffic
dtnsim.node[19].app.enable = true
dtnsim.node[19].app.bundlesNumber = "1,1,1,1,1,1,1,1,1,1,1,1,1,1,1,1,1,1,1,1,1,1,1,1,1,1,1,1,1,1,1,1,1,1,1,1,1,1,1,1,1,1,1,1,1,1,1,1,1,1,1,1,1,1,1,1,1,1,1,1,1,1,1,1,1,1,1,1,1,1,1,1,1,1,1,1,1,1,1,1,1,1,1,1,1,1,1,1,1,1,1,1,1,1,1,1,1,1,1,1"
dtnsim.node[19].app.start = "18,20,5,8,5,5,20,10,2,6,7,10,15,10,14,4,1,17,18,11,7,16,6,19,14,9,5,3,16,1,8,20,5,5,12,15,5,14,18,9,5,5,8,16,19,18,15,2,15,13,7,20,13,4,8,14,11,16,11,2,10,5,3,12,20,5,17,20,14,17,19,12,17,18,10,7,16,2,8,12,15,5,5,2,15,15,13,16,16,4,8,2,7,16,7,10,19,4,16,15"
dtnsim.node[19].app.destinationEid = "104,80,53,145,5,165,60,126,97,140,147,38,177,17,15,71,110,27,134,101,148,70,149,169,45,139,16,162,4,73,138,72,114,178,21,105,56,101,39,179,132,138,26,151,125,8,22,8,124,110,31,89,88,133,113,26,119,63,76,114,111,67,52,116,112,27,9,163,63,1,32,90,78,47,57,110,39,73,55,69,60,161,152,39,12,18,38,1,53,122,14,153,84,27,54,124,141,148,152,37"
dtnsim.node[19].app.size = "200,500,200,50,100,200,200,200,50,100,50,100,200,200,50,50,50,50,50,50,200,50,100,200,200,200,50,200,200,200,50,500,100,100,200,500,500,100,100,50,500,200,200,50,200,200,200,100,500,100,200,200,50,50,50,50,50,200,50,100,50,200,500,100,200,50,500,50,500,200,200,50,500,50,50,500,200,200,200,100,200,500,100,500,200,200,100,200,200,500,500,100,50,200,50,200,200,100,200,200"
        # Node 20 random traffic
dtnsim.node[20].app.enable = true
dtnsim.node[20].app.bundlesNumber = "1,1,1,1,1,1,1,1,1,1,1,1,1,1,1,1,1,1,1,1,1,1,1,1,1,1,1,1,1,1,1,1,1,1,1,1,1,1,1,1,1,1,1,1,1,1,1,1,1,1,1,1,1,1,1,1,1,1,1,1,1,1,1,1,1,1,1,1,1,1,1,1,1,1,1,1,1,1,1,1,1,1,1,1,1,1,1,1,1,1,1,1,1,1,1,1,1,1,1,1"
dtnsim.node[20].app.start = "18,15,9,19,4,2,14,14,12,6,5,7,1,5,10,20,6,17,17,20,17,5,11,1,14,1,3,3,13,20,20,11,3,16,3,16,11,3,19,6,17,20,7,8,6,1,11,18,12,12,9,19,4,20,15,19,2,20,8,19,9,16,1,15,14,9,9,14,2,4,12,20,4,3,14,8,8,6,9,16,18,1,3,5,12,16,4,6,12,15,2,9,11,8,13,16,15,4,10,12"
dtnsim.node[20].app.destinationEid = "156,151,154,41,104,90,144,66,152,19,47,87,102,29,72,85,167,105,120,29,100,31,145,87,6,34,60,73,31,117,109,101,138,170,3,87,41,13,27,57,154,36,103,50,79,161,49,177,36,145,154,30,152,159,169,62,4,32,5,136,175,27,56,53,66,28,121,94,96,87,6,59,139,54,179,34,160,108,66,169,121,139,160,166,132,31,121,69,12,22,122,51,38,34,108,157,140,126,62,105"
dtnsim.node[20].app.size = "500,200,500,200,500,100,500,500,200,500,200,100,100,200,100,200,100,200,500,50,200,100,200,100,500,100,100,500,50,50,50,100,200,500,200,50,50,50,500,200,500,200,100,200,100,50,200,200,500,200,500,100,500,500,50,50,500,500,200,50,500,200,50,200,100,200,100,200,100,200,100,200,50,100,50,200,200,200,100,50,100,50,50,200,200,100,50,500,100,200,50,500,100,100,500,50,200,200,50,200"
        # Node 21 random traffic
dtnsim.node[21].app.enable = true
dtnsim.node[21].app.bundlesNumber = "1,1,1,1,1,1,1,1,1,1,1,1,1,1,1,1,1,1,1,1,1,1,1,1,1,1,1,1,1,1,1,1,1,1,1,1,1,1,1,1,1,1,1,1,1,1,1,1,1,1,1,1,1,1,1,1,1,1,1,1,1,1,1,1,1,1,1,1,1,1,1,1,1,1,1,1,1,1,1,1,1,1,1,1,1,1,1,1,1,1,1,1,1,1,1,1,1,1,1,1"
dtnsim.node[21].app.start = "6,8,9,1,1,16,20,18,19,16,2,18,14,16,11,13,7,12,18,2,17,6,18,18,4,16,9,5,12,20,2,18,6,17,8,12,7,20,12,4,11,19,5,15,4,10,8,19,1,5,10,14,3,8,1,11,11,13,18,15,13,7,19,6,6,11,9,10,19,5,5,6,11,2,20,2,14,10,7,17,5,1,14,8,10,9,17,18,20,19,6,20,20,14,16,14,6,19,4,18"
dtnsim.node[21].app.destinationEid = "101,122,110,44,53,142,4,145,19,136,98,59,114,121,151,161,46,161,158,110,116,16,30,158,163,98,109,89,33,112,129,151,161,38,60,19,78,37,69,143,148,32,5,63,54,119,27,7,89,6,2,144,91,122,83,34,40,24,180,19,115,11,171,45,62,6,88,16,139,97,144,19,25,179,58,105,127,165,29,19,108,176,129,43,30,94,25,42,25,108,115,52,31,137,149,163,115,107,131,96"
dtnsim.node[21].app.size = "500,500,200,500,200,100,500,500,500,200,50,200,100,100,500,500,50,50,200,100,500,200,50,500,50,200,50,50,100,200,500,50,200,500,200,200,200,500,200,50,500,50,200,200,500,100,200,50,200,50,500,200,500,500,50,50,100,100,50,50,500,100,100,100,500,200,100,200,100,50,500,50,100,50,500,100,500,50,500,500,100,50,50,50,100,500,500,200,500,50,500,500,100,200,50,100,100,100,50,500"
        # Node 22 random traffic
dtnsim.node[22].app.enable = true
dtnsim.node[22].app.bundlesNumber = "1,1,1,1,1,1,1,1,1,1,1,1,1,1,1,1,1,1,1,1,1,1,1,1,1,1,1,1,1,1,1,1,1,1,1,1,1,1,1,1,1,1,1,1,1,1,1,1,1,1,1,1,1,1,1,1,1,1,1,1,1,1,1,1,1,1,1,1,1,1,1,1,1,1,1,1,1,1,1,1,1,1,1,1,1,1,1,1,1,1,1,1,1,1,1,1,1,1,1,1"