[General]
network = src.dtnsim										
repeat = 1
allow-object-stealing-on-deletion = true

# Simulation end time
sim-time-limit = 84600s

# Nodes quantity (identifiers (EiDs) matches their index, EiD=0 is ignored)			
dtnsim.nodesNumber = 240
dtnsim.node[*].icon = "satellite"

# Nodes's failure rates
dtnsim.node[*].fault.enable = false
dtnsim.node[*].fault.meanTTF = 0s
dtnsim.node[*].fault.meanTTR = 0s

# Mobility
dtnsim.node[*].hasMobility = true
dtnsim.node[*].noradModule.satIndex = parentIndex()
dtnsim.node[*].noradModule.satName = "sat"
**.updateInterval = 20s
**.numOfSats = 240
**.satPerPlane = 12
**.altitude = 540
**.planes = 20
**.phaseOffset = 11

dtnsim.node[*].dtn.routing = "antop"
dtnsim.node[*].dtn.printRoutingDebug = true

# --- Random Traffic Configuration ---
# Node 1 random traffic
dtnsim.node[1].app.enable = true
dtnsim.node[1].app.bundlesNumber = "1,1,1,1,1,1,1,1,1,1,1,1,1,1,1,1,1,1,1,1,1,1,1,1,1,1,1,1,1,1,1,1,1,1,1,1,1,1,1,1,1,1,1,1,1,1,1,1,1,1,1,1,1,1,1,1,1,1,1,1,1,1,1,1,1,1,1,1,1,1,1,1,1,1,1,1,1,1,1,1,1,1,1,1,1,1,1,1,1,1,1,1,1,1,1,1,1,1,1,1"
dtnsim.node[1].app.start = "7,1,6,19,6,15,15,14,14,9,14,15,19,7,7,13,10,1,12,17,13,4,17,19,16,16,3,17,12,9,17,16,9,3,14,2,5,15,19,11,12,1,19,4,11,5,10,15,12,6,4,15,13,15,12,4,9,20,10,10,15,8,4,13,11,19,10,14,4,20,13,19,17,3,20,3,6,16,11,8,8,1,15,19,6,17,7,13,6,12,7,20,9,16,2,18,9,18,12,5"
dtnsim.node[1].app.destinationEid = "24,124,32,94,114,89,159,77,49,145,24,164,173,74,49,140,90,167,89,50,31,74,215,208,97,65,218,218,13,44,223,65,166,170,118,13,207,171,197,130,11,114,183,186,228,219,141,48,92,114,197,68,175,95,18,158,55,232,219,43,43,114,116,146,197,37,178,105,90,74,129,67,44,122,35,135,80,3,102,68,23,136,185,132,214,52,216,68,21,151,114,40,49,226,235,117,124,93,217,215"
dtnsim.node[1].app.size = "100,500,100,50,100,100,100,500,500,50,50,500,200,500,200,100,500,100,200,200,200,500,500,200,200,50,200,200,500,100,200,500,500,500,100,500,500,100,200,500,100,500,100,200,500,200,50,200,200,50,50,500,50,100,100,200,100,100,100,50,100,100,200,100,50,500,500,200,200,100,500,100,200,500,100,200,100,500,100,50,50,100,50,500,500,100,100,500,100,50,500,500,50,100,200,500,100,50,100,100"
        # Node 2 random traffic
dtnsim.node[2].app.enable = true
dtnsim.node[2].app.bundlesNumber = "1,1,1,1,1,1,1,1,1,1,1,1,1,1,1,1,1,1,1,1,1,1,1,1,1,1,1,1,1,1,1,1,1,1,1,1,1,1,1,1,1,1,1,1,1,1,1,1,1,1,1,1,1,1,1,1,1,1,1,1,1,1,1,1,1,1,1,1,1,1,1,1,1,1,1,1,1,1,1,1,1,1,1,1,1,1,1,1,1,1,1,1,1,1,1,1,1,1,1,1"
dtnsim.node[2].app.start = "10,20,12,17,4,14,6,12,3,6,10,9,19,10,18,1,19,14,15,1,20,8,8,20,13,9,7,3,11,15,5,2,16,10,1,19,1,4,12,18,17,12,8,20,15,12,11,13,5,10,5,15,8,9,19,11,20,5,10,4,18,18,5,7,2,2,14,6,9,11,2,4,17,11,17,14,16,19,12,15,12,6,4,7,3,12,10,13,15,1,4,19,3,8,7,19,2,9,1,5"
dtnsim.node[2].app.destinationEid = "12,79,174,45,209,90,46,100,183,132,191,57,110,145,20,178,187,3,193,94,190,144,186,236,144,79,194,121,99,13,157,223,3,97,125,29,129,30,147,223,83,85,5,87,30,49,90,151,191,57,71,225,214,224,209,72,103,150,106,115,144,207,140,11,5,187,72,235,235,205,192,32,134,120,80,216,144,84,127,189,207,69,139,213,214,46,174,36,13,230,196,209,180,182,214,150,12,36,120,120"
dtnsim.node[2].app.size = "50,500,200,200,50,50,200,200,200,100,100,200,500,200,100,500,100,50,200,100,50,50,50,200,50,500,50,200,100,50,50,100,200,200,100,100,50,200,50,50,50,200,50,50,200,200,200,500,50,500,200,500,100,500,100,50,50,50,50,100,500,50,200,200,500,200,500,50,200,100,50,200,50,200,200,100,200,100,200,500,200,50,100,200,500,500,50,50,100,100,500,500,200,500,200,100,200,50,500,200"
        # Node 3 random traffic
dtnsim.node[3].app.enable = true
dtnsim.node[3].app.bundlesNumber = "1,1,1,1,1,1,1,1,1,1,1,1,1,1,1,1,1,1,1,1,1,1,1,1,1,1,1,1,1,1,1,1,1,1,1,1,1,1,1,1,1,1,1,1,1,1,1,1,1,1,1,1,1,1,1,1,1,1,1,1,1,1,1,1,1,1,1,1,1,1,1,1,1,1,1,1,1,1,1,1,1,1,1,1,1,1,1,1,1,1,1,1,1,1,1,1,1,1,1,1"
dtnsim.node[3].app.start = "19,16,4,10,16,15,20,6,18,9,19,5,14,4,10,15,20,19,14,1,3,2,20,8,16,20,4,19,18,1,4,6,3,6,14,8,4,10,5,20,11,7,5,7,19,3,4,14,18,10,3,18,18,3,7,4,9,1,18,12,7,3,11,13,8,18,15,15,10,2,12,5,10,10,9,8,12,10,8,7,3,8,2,1,6,2,11,6,11,12,16,7,17,14,9,18,14,8,6,15"
dtnsim.node[3].app.destinationEid = "214,218,75,27,124,89,55,132,196,88,109,90,194,12,231,172,222,40,183,206,126,180,90,11,170,228,30,239,132,122,31,184,12,158,43,22,224,198,99,215,59,187,39,23,119,26,226,48,158,61,206,210,149,141,76,211,174,84,29,12,234,73,219,82,64,114,199,212,190,70,31,39,238,220,31,31,89,120,195,48,102,32,209,197,93,19,223,189,147,24,163,223,222,88,136,18,224,103,210,47"
dtnsim.node[3].app.size = "100,200,100,200,50,50,500,200,100,500,50,50,200,200,200,500,500,100,50,200,500,200,50,50,200,100,100,100,200,50,100,200,500,100,100,50,500,200,50,100,50,100,50,50,200,100,100,500,200,100,100,100,100,50,200,50,500,200,50,100,100,50,100,50,200,500,100,500,500,200,50,200,500,50,100,50,500,200,100,500,100,500,50,50,200,200,200,100,50,50,50,200,200,100,50,200,100,50,200,500"
        # Node 4 random traffic
dtnsim.node[4].app.enable = true
dtnsim.node[4].app.bundlesNumber = "1,1,1,1,1,1,1,1,1,1,1,1,1,1,1,1,1,1,1,1,1,1,1,1,1,1,1,1,1,1,1,1,1,1,1,1,1,1,1,1,1,1,1,1,1,1,1,1,1,1,1,1,1,1,1,1,1,1,1,1,1,1,1,1,1,1,1,1,1,1,1,1,1,1,1,1,1,1,1,1,1,1,1,1,1,1,1,1,1,1,1,1,1,1,1,1,1,1,1,1"
dtnsim.node[4].app.start = "13,4,4,20,12,5,13,13,7,14,6,14,13,14,9,11,1,14,13,4,20,6,10,13,11,9,12,17,3,15,11,6,3,18,9,6,4,1,3,15,9,20,11,5,9,9,7,15,17,20,8,20,12,16,16,12,10,10,12,2,20,19,9,4,7,8,4,10,4,1,14,4,1,5,11,12,8,6,13,18,9,15,4,18,10,2,9,9,10,13,2,13,7,9,18,11,3,5,14,17"
dtnsim.node[4].app.destinationEid = "190,208,6,209,18,166,72,163,203,14,187,240,175,168,107,80,113,235,206,55,198,223,217,202,151,199,89,175,234,133,170,127,154,59,100,1,238,230,169,59,85,28,214,110,14,237,150,212,134,148,229,199,78,178,56,141,62,150,1,201,42,144,139,84,132,17,184,175,103,83,8,99,26,92,84,152,68,147,106,107,2,171,79,82,204,96,112,105,63,72,68,142,167,135,145,163,66,195,161,9"
dtnsim.node[4].app.size = "500,100,500,100,200,50,200,500,500,500,100,200,200,100,500,50,100,100,500,100,500,100,200,50,50,500,500,200,100,200,500,100,100,100,100,100,200,500,100,100,200,500,500,50,500,50,100,500,100,50,50,100,500,200,500,50,50,50,50,500,500,200,200,50,50,200,50,200,50,500,50,200,50,100,200,200,50,100,100,50,200,50,100,200,50,100,50,500,500,100,50,200,100,50,200,500,50,500,200,500"
        # Node 5 random traffic
dtnsim.node[5].app.enable = true
dtnsim.node[5].app.bundlesNumber = "1,1,1,1,1,1,1,1,1,1,1,1,1,1,1,1,1,1,1,1,1,1,1,1,1,1,1,1,1,1,1,1,1,1,1,1,1,1,1,1,1,1,1,1,1,1,1,1,1,1,1,1,1,1,1,1,1,1,1,1,1,1,1,1,1,1,1,1,1,1,1,1,1,1,1,1,1,1,1,1,1,1,1,1,1,1,1,1,1,1,1,1,1,1,1,1,1,1,1,1"
dtnsim.node[5].app.start = "12,8,3,18,19,15,10,4,19,17,5,18,14,5,12,14,8,10,17,17,4,9,2,8,20,15,15,15,18,10,17,8,7,13,7,7,13,20,11,3,20,6,14,9,3,1,19,3,16,15,6,15,2,7,19,20,10,5,3,16,7,15,8,10,18,20,1,18,12,19,6,18,16,7,15,13,12,12,18,5,1,20,5,11,3,9,17,5,15,16,6,10,11,11,7,1,13,9,14,6"
dtnsim.node[5].app.destinationEid = "132,93,113,49,60,159,133,44,87,142,99,177,41,179,36,24,96,77,111,192,51,207,102,1,135,191,88,123,139,142,120,196,131,208,92,45,147,115,168,52,139,118,102,191,225,212,223,99,2,209,189,75,226,185,101,185,239,127,69,25,13,144,117,86,237,172,116,125,58,212,125,176,74,66,170,63,73,164,212,208,166,54,78,205,66,107,195,55,154,73,151,63,138,64,11,236,26,143,16,185"
dtnsim.node[5].app.size = "200,500,500,500,50,100,100,500,100,200,50,100,500,500,500,500,200,50,50,200,200,200,100,500,100,100,50,50,200,200,100,100,500,100,100,200,200,50,50,100,200,200,50,200,500,50,100,500,500,200,100,100,500,500,500,200,500,50,500,500,50,500,50,50,100,50,100,50,100,100,200,500,100,100,500,50,50,50,500,100,200,50,500,200,50,100,200,200,200,50,100,50,100,200,500,500,500,200,500,100"
        # Node 6 random traffic
dtnsim.node[6].app.enable = true
dtnsim.node[6].app.bundlesNumber = "1,1,1,1,1,1,1,1,1,1,1,1,1,1,1,1,1,1,1,1,1,1,1,1,1,1,1,1,1,1,1,1,1,1,1,1,1,1,1,1,1,1,1,1,1,1,1,1,1,1,1,1,1,1,1,1,1,1,1,1,1,1,1,1,1,1,1,1,1,1,1,1,1,1,1,1,1,1,1,1,1,1,1,1,1,1,1,1,1,1,1,1,1,1,1,1,1,1,1,1"
dtnsim.node[6].app.start = "19,19,11,8,14,4,1,12,11,10,19,2,1,6,18,1,18,12,15,5,19,15,20,20,12,8,14,19,12,17,7,16,8,19,12,3,9,13,14,10,13,6,9,17,6,6,15,4,14,17,2,5,20,5,6,11,18,9,6,15,17,1,15,2,19,3,17,8,16,10,3,3,8,12,1,17,11,19,19,13,16,3,5,18,9,15,12,6,20,12,1,8,18,6,5,19,14,2,17,2"
dtnsim.node[6].app.destinationEid = "216,171,161,169,31,102,27,79,119,5,159,161,90,114,38,47,42,109,100,82,224,200,227,126,24,180,233,40,5,125,191,211,167,95,53,158,43,226,232,85,58,79,36,146,192,132,125,81,141,181,137,51,42,189,86,148,5,206,200,203,211,230,5,166,157,239,206,47,97,121,99,123,175,199,47,181,171,177,150,122,69,229,178,127,28,144,56,60,190,237,166,66,84,176,114,196,30,220,224,214"
dtnsim.node[6].app.size = "500,200,50,100,500,100,200,100,200,500,200,500,500,50,500,50,50,500,100,100,500,200,200,200,500,500,500,200,200,200,100,100,50,50,50,200,50,200,200,500,200,200,100,200,50,500,50,100,100,500,50,500,200,50,50,100,50,50,200,500,500,100,50,500,500,500,100,100,200,500,50,100,100,50,100,200,500,200,500,500,50,200,100,50,500,200,500,200,200,200,50,100,500,50,200,50,100,50,200,50"
        # Node 7 random traffic
dtnsim.node[7].app.enable = true
dtnsim.node[7].app.bundlesNumber = "1,1,1,1,1,1,1,1,1,1,1,1,1,1,1,1,1,1,1,1,1,1,1,1,1,1,1,1,1,1,1,1,1,1,1,1,1,1,1,1,1,1,1,1,1,1,1,1,1,1,1,1,1,1,1,1,1,1,1,1,1,1,1,1,1,1,1,1,1,1,1,1,1,1,1,1,1,1,1,1,1,1,1,1,1,1,1,1,1,1,1,1,1,1,1,1,1,1,1,1"
dtnsim.node[7].app.start = "6,4,9,3,17,16,3,12,14,11,10,7,10,6,16,16,8,11,15,9,17,2,8,15,7,17,7,10,2,2,2,3,19,12,16,13,6,12,4,6,18,9,9,2,1,10,10,17,6,19,9,19,20,18,10,15,18,19,13,3,1,5,12,5,11,16,8,10,3,5,9,11,8,1,17,14,11,14,6,17,3,2,8,12,17,12,2,7,6,15,8,4,19,5,2,19,11,16,17,1"
dtnsim.node[7].app.destinationEid = "194,206,165,174,108,52,240,200,145,177,96,111,206,80,123,206,55,138,6,198,63,206,167,193,173,24,207,25,130,164,142,1,83,168,31,45,54,34,75,121,125,142,130,151,125,108,23,69,137,143,21,12,201,108,141,212,186,153,109,48,211,56,39,148,85,44,223,74,183,2,77,239,110,150,62,146,117,164,116,51,70,209,135,204,56,202,94,227,126,172,13,6,183,224,233,112,74,234,79,188"
dtnsim.node[7].app.size = "100,50,100,100,50,100,500,500,200,50,500,500,200,500,50,100,50,500,500,50,200,50,200,50,50,100,100,50,200,50,100,200,100,100,50,50,200,50,500,50,200,200,50,500,50,100,50,50,50,200,200,500,200,200,200,100,100,200,200,100,500,500,100,50,50,100,50,100,200,500,100,100,500,200,500,100,200,50,200,200,100,50,500,500,100,200,100,50,500,100,50,200,500,50,100,200,500,100,50,50"
        # Node 8 random traffic
dtnsim.node[8].app.enable = true
dtnsim.node[8].app.bundlesNumber = "1,1,1,1,1,1,1,1,1,1,1,1,1,1,1,1,1,1,1,1,1,1,1,1,1,1,1,1,1,1,1,1,1,1,1,1,1,1,1,1,1,1,1,1,1,1,1,1,1,1,1,1,1,1,1,1,1,1,1,1,1,1,1,1,1,1,1,1,1,1,1,1,1,1,1,1,1,1,1,1,1,1,1,1,1,1,1,1,1,1,1,1,1,1,1,1,1,1,1,1"
dtnsim.node[8].app.start = "7,15,10,7,14,11,2,3,13,6,5,4,6,11,17,17,7,4,18,8,13,10,9,9,14,13,7,20,15,6,19,12,12,17,19,19,5,15,2,9,1,19,17,17,20,1,17,14,3,8,19,9,17,3,9,14,2,13,13,16,12,15,14,10,18,18,9,12,1,16,7,11,5,5,1,7,13,18,19,8,3,8,16,14,12,13,10,7,16,2,18,18,6,12,13,20,17,16,16,1"
dtnsim.node[8].app.destinationEid = "26,67,141,82,71,34,17,218,2,78,32,168,100,18,100,31,51,77,91,237,73,31,228,208,211,70,65,43,65,193,44,69,33,141,142,152,45,135,50,208,72,228,221,195,168,65,45,52,29,71,13,227,183,167,114,219,49,135,17,182,50,121,180,80,16,219,240,16,74,107,129,182,209,228,143,6,36,62,123,186,212,35,138,75,206,75,112,41,176,71,180,104,136,239,64,182,175,59,110,86"
dtnsim.node[8].app.size = "500,100,500,200,50,100,100,500,200,200,100,100,50,500,500,200,500,50,100,500,100,500,50,100,100,50,50,500,500,50,50,50,500,500,100,200,500,200,200,100,100,50,200,100,200,100,500,50,50,500,500,100,500,500,100,500,50,500,100,50,50,500,50,200,200,200,50,500,500,500,500,100,50,200,200,100,200,100,200,100,500,100,50,100,200,500,500,500,100,200,50,500,500,200,50,500,100,200,50,100"
        # Node 9 random traffic
dtnsim.node[9].app.enable = true
dtnsim.node[9].app.bundlesNumber = "1,1,1,1,1,1,1,1,1,1,1,1,1,1,1,1,1,1,1,1,1,1,1,1,1,1,1,1,1,1,1,1,1,1,1,1,1,1,1,1,1,1,1,1,1,1,1,1,1,1,1,1,1,1,1,1,1,1,1,1,1,1,1,1,1,1,1,1,1,1,1,1,1,1,1,1,1,1,1,1,1,1,1,1,1,1,1,1,1,1,1,1,1,1,1,1,1,1,1,1"
dtnsim.node[9].app.start = "9,11,19,18,12,20,19,1,4,5,12,11,14,14,4,18,9,12,1,19,19,11,11,11,7,8,7,5,4,7,1,3,2,15,9,20,14,10,10,9,5,6,8,11,16,5,17,20,2,14,13,14,10,15,11,12,12,3,4,20,2,14,18,20,19,10,19,14,4,19,14,16,20,1,5,10,13,20,16,14,10,10,9,18,1,20,2,18,2,15,6,19,3,11,1,10,9,5,6,15"
dtnsim.node[9].app.destinationEid = "166,56,200,107,233,136,227,98,172,184,74,213,1,151,218,13,46,153,130,113,211,173,82,33,198,163,174,238,163,185,229,70,53,157,143,46,126,192,91,49,222,166,5,217,231,102,167,44,144,115,197,21,221,165,218,230,79,196,82,206,121,130,117,54,33,93,54,182,212,74,60,41,66,36,91,78,64,67,45,83,184,4,6,237,51,178,65,191,46,153,201,148,34,60,238,62,102,108,142,188"
dtnsim.node[9].app.size = "50,100,50,500,500,500,100,500,200,100,500,50,200,100,100,50,200,500,50,50,50,500,200,500,200,200,100,500,200,100,200,200,100,50,500,500,100,50,100,50,500,100,500,200,100,100,100,50,200,200,100,200,50,50,200,500,50,200,100,50,200,200,500,50,50,200,50,50,200,100,100,500,50,200,100,100,200,500,100,50,50,500,100,200,50,50,50,50,100,500,50,50,100,200,500,500,50,100,500,200"
        # Node 10 random traffic
dtnsim.node[10].app.enable = true
dtnsim.node[10].app.bundlesNumber = "1,1,1,1,1,1,1,1,1,1,1,1,1,1,1,1,1,1,1,1,1,1,1,1,1,1,1,1,1,1,1,1,1,1,1,1,1,1,1,1,1,1,1,1,1,1,1,1,1,1,1,1,1,1,1,1,1,1,1,1,1,1,1,1,1,1,1,1,1,1,1,1,1,1,1,1,1,1,1,1,1,1,1,1,1,1,1,1,1,1,1,1,1,1,1,1,1,1,1,1"
dtnsim.node[10].app.start = "1,3,20,5,18,7,10,19,11,14,16,4,1,3,1,7,3,7,18,4,20,16,11,6,1,8,10,2,14,8,4,8,5,7,11,20,6,15,4,15,8,14,18,4,10,3,13,7,9,17,9,17,10,16,10,20,6,17,15,6,13,19,16,6,15,7,7,15,15,6,6,3,16,5,15,4,1,16,10,19,14,11,19,13,8,9,6,11,15,5,11,3,11,3,14,16,2,9,14,19"
dtnsim.node[10].app.destinationEid = "110,14,147,83,158,34,177,198,167,115,19,11,73,11,4,240,34,202,42,50,85,44,48,20,19,38,139,181,186,239,230,67,170,199,2,151,80,4,52,177,32,79,223,194,47,71,186,160,16,199,29,118,119,104,18,31,100,92,33,156,26,197,176,136,81,209,216,105,192,26,209,132,238,77,118,100,126,80,194,172,119,17,172,234,56,38,175,150,14,185,230,177,176,103,129,234,96,238,236,196"
dtnsim.node[10].app.size = "50,200,50,500,100,50,50,50,200,100,50,500,200,200,200,500,100,100,50,50,500,50,50,100,50,500,200,500,500,200,200,500,50,50,50,500,50,200,200,200,500,100,50,500,50,50,200,50,50,50,500,200,500,500,200,200,50,50,200,50,500,500,500,50,100,500,100,100,500,500,500,100,50,200,50,500,200,200,100,500,500,100,500,100,200,50,200,50,100,50,200,200,200,50,200,50,500,500,200,500"
        # Node 11 random traffic
dtnsim.node[11].app.enable = true
dtnsim.node[11].app.bundlesNumber = "1,1,1,1,1,1,1,1,1,1,1,1,1,1,1,1,1,1,1,1,1,1,1,1,1,1,1,1,1,1,1,1,1,1,1,1,1,1,1,1,1,1,1,1,1,1,1,1,1,1,1,1,1,1,1,1,1,1,1,1,1,1,1,1,1,1,1,1,1,1,1,1,1,1,1,1,1,1,1,1,1,1,1,1,1,1,1,1,1,1,1,1,1,1,1,1,1,1,1,1"
dtnsim.node[11].app.start = "4,5,19,3,11,13,13,16,10,8,6,1,7,8,1,5,12,17,12,12,11,15,6,12,2,8,20,14,4,9,9,5,2,10,5,4,11,5,14,5,18,15,8,6,9,2,15,1,12,17,12,7,1,6,19,9,11,17,8,2,2,19,9,14,7,10,19,12,10,5,2,2,5,4,10,17,18,15,6,1,8,6,8,3,8,18,3,10,13,14,14,14,8,10,12,20,2,15,15,7"
dtnsim.node[11].app.destinationEid = "101,63,67,1,194,128,4,210,48,3,181,6,132,90,143,93,215,20,113,228,121,210,73,201,63,6,173,44,132,71,109,53,119,16,24,129,81,143,83,22,220,69,10,211,119,127,134,177,106,200,236,33,185,123,129,75,140,145,59,117,162,228,151,110,124,230,47,90,190,24,23,153,218,151,126,104,96,77,86,195,239,24,158,31,34,201,89,81,115,24,43,149,43,76,160,85,25,52,160,108"
dtnsim.node[11].app.size = "100,500,500,200,200,100,500,50,200,100,200,50,200,100,100,200,200,500,500,500,200,50,500,100,100,100,200,200,200,500,500,100,500,100,500,500,50,50,500,500,50,500,100,100,50,200,100,100,200,100,200,200,50,200,500,100,50,100,500,200,200,100,200,100,200,200,50,200,100,200,50,500,100,100,500,200,100,100,50,500,50,50,500,500,200,50,500,50,200,50,100,100,50,200,500,200,500,100,500,200"
        # Node 12 random traffic
dtnsim.node[12].app.enable = true
dtnsim.node[12].app.bundlesNumber = "1,1,1,1,1,1,1,1,1,1,1,1,1,1,1,1,1,1,1,1,1,1,1,1,1,1,1,1,1,1,1,1,1,1,1,1,1,1,1,1,1,1,1,1,1,1,1,1,1,1,1,1,1,1,1,1,1,1,1,1,1,1,1,1,1,1,1,1,1,1,1,1,1,1,1,1,1,1,1,1,1,1,1,1,1,1,1,1,1,1,1,1,1,1,1,1,1,1,1,1"
dtnsim.node[12].app.start = "19,11,20,11,14,7,5,16,6,3,20,18,4,11,4,17,10,3,14,16,7,20,1,19,20,19,5,19,5,16,17,11,14,6,20,9,8,11,10,3,3,20,17,9,6,20,9,19,6,16,10,17,18,3,11,1,2,11,5,4,19,12,9,13,12,17,18,15,7,18,12,13,5,4,15,6,18,16,8,19,8,11,16,7,14,16,16,11,20,19,16,6,9,1,19,10,18,20,7,12"
dtnsim.node[12].app.destinationEid = "230,5,68,40,234,168,61,237,229,119,128,126,120,111,91,1,128,54,116,198,114,66,135,136,129,55,108,19,37,220,221,29,212,44,96,88,162,202,162,176,65,224,105,139,137,94,37,34,75,198,142,117,103,207,5,235,35,200,223,16,18,25,26,32,85,230,167,84,116,149,44,162,41,167,11,151,194,63,72,164,218,57,69,28,126,208,205,54,37,85,222,160,80,173,51,43,112,32,207,91"
dtnsim.node[12].app.size = "50,200,100,100,500,200,100,100,200,50,200,200,500,50,50,50,50,100,500,500,500,100,200,200,200,500,100,500,500,50,100,100,50,500,50,100,100,50,50,200,200,200,200,50,50,100,50,50,100,200,50,200,50,50,200,500,200,50,50,500,100,100,500,500,100,100,50,100,50,50,200,200,200,100,500,200,500,50,200,100,200,500,100,100,100,50,500,100,100,200,200,50,50,50,100,500,200,200,200,500"
        # Node 13 random traffic
dtnsim.node[13].app.enable = true
dtnsim.node[13].app.bundlesNumber = "1,1,1,1,1,1,1,1,1,1,1,1,1,1,1,1,1,1,1,1,1,1,1,1,1,1,1,1,1,1,1,1,1,1,1,1,1,1,1,1,1,1,1,1,1,1,1,1,1,1,1,1,1,1,1,1,1,1,1,1,1,1,1,1,1,1,1,1,1,1,1,1,1,1,1,1,1,1,1,1,1,1,1,1,1,1,1,1,1,1,1,1,1,1,1,1,1,1,1,1"
dtnsim.node[13].app.start = "13,7,4,15,4,20,2,15,17,2,14,9,15,9,2,3,10,8,11,2,16,2,3,9,14,16,1,13,17,11,18,2,1,10,4,17,13,19,3,10,5,20,13,17,15,16,3,12,14,7,10,17,14,17,16,3,15,3,16,20,10,11,6,13,18,17,9,13,5,18,15,12,14,8,8,20,7,3,1,8,2,1,18,14,13,9,7,10,10,10,20,1,8,16,17,5,14,10,12,15"
dtnsim.node[13].app.destinationEid = "110,140,98,3,153,25,11,5,152,48,178,3,184,121,8,150,86,222,200,7,196,115,26,218,30,82,179,94,164,230,21,86,5,172,206,157,87,224,200,209,73,79,66,239,110,166,46,31,172,60,159,78,59,171,196,71,232,14,112,179,106,192,15,165,188,102,11,47,47,104,229,135,184,225,70,149,149,115,198,185,204,140,240,187,136,222,157,180,223,57,133,9,226,190,214,225,164,57,61,35"
dtnsim.node[13].app.size = "100,200,100,100,50,500,200,200,100,500,200,200,50,200,200,500,500,500,200,100,50,500,500,50,50,200,50,200,500,500,200,100,500,200,200,200,500,500,200,100,100,500,200,100,100,50,100,50,50,200,500,200,50,200,200,500,500,200,200,100,500,200,200,200,200,200,100,500,200,100,500,50,200,500,500,50,500,50,100,200,100,100,100,500,100,50,100,200,500,50,100,100,500,50,100,50,200,50,200,200"
        # Node 14 random traffic
dtnsim.node[14].app.enable = true
dtnsim.node[14].app.bundlesNumber = "1,1,1,1,1,1,1,1,1,1,1,1,1,1,1,1,1,1,1,1,1,1,1,1,1,1,1,1,1,1,1,1,1,1,1,1,1,1,1,1,1,1,1,1,1,1,1,1,1,1,1,1,1,1,1,1,1,1,1,1,1,1,1,1,1,1,1,1,1,1,1,1,1,1,1,1,1,1,1,1,1,1,1,1,1,1,1,1,1,1,1,1,1,1,1,1,1,1,1,1"
dtnsim.node[14].app.start = "4,3,8,9,2,1,19,18,19,5,2,12,12,4,20,10,5,13,18,7,3,5,2,16,8,13,2,20,15,17,10,17,15,11,16,6,10,10,16,2,3,13,11,15,1,15,11,12,8,16,10,5,19,2,17,12,2,2,13,3,5,7,10,9,20,19,20,17,9,12,14,10,11,2,12,7,1,6,20,12,2,17,15,8,18,4,15,10,16,10,19,16,2,20,5,2,8,2,15,15"
dtnsim.node[14].app.destinationEid = "36,211,109,102,168,215,162,27,116,27,49,136,6,107,219,220,84,89,175,8,58,116,224,189,71,99,13,13,120,9,213,163,236,17,65,42,180,2,65,144,173,100,54,62,6,105,78,167,220,133,120,240,218,49,83,164,117,2,20,21,91,134,233,208,203,179,208,167,2,162,229,97,168,228,92,110,171,140,196,157,223,230,184,26,42,215,145,160,175,191,117,226,219,85,103,175,90,129,107,207"
dtnsim.node[14].app.size = "500,200,200,50,500,500,500,500,200,50,100,100,200,50,500,200,50,100,50,50,100,200,500,100,500,50,500,200,50,200,200,50,500,200,200,50,200,500,50,100,50,100,500,100,50,500,200,50,50,500,500,50,50,500,100,500,500,500,200,500,200,200,100,500,500,200,500,100,100,50,100,100,500,50,200,50,100,200,100,50,100,500,200,50,100,100,200,50,50,200,500,200,500,500,100,500,100,100,50,100"
        # Node 15 random traffic
dtnsim.node[15].app.enable = true
dtnsim.node[15].app.bundlesNumber = "1,1,1,1,1,1,1,1,1,1,1,1,1,1,1,1,1,1,1,1,1,1,1,1,1,1,1,1,1,1,1,1,1,1,1,1,1,1,1,1,1,1,1,1,1,1,1,1,1,1,1,1,1,1,1,1,1,1,1,1,1,1,1,1,1,1,1,1,1,1,1,1,1,1,1,1,1,1,1,1,1,1,1,1,1,1,1,1,1,1,1,1,1,1,1,1,1,1,1,1"
dtnsim.node[15].app.start = "10,17,2,9,7,13,8,9,6,12,7,20,13,11,5,8,12,13,9,15,11,19,3,2,19,14,12,15,6,6,15,6,13,10,17,13,19,5,4,12,12,8,16,16,13,3,7,3,16,20,15,1,13,18,16,15,9,6,13,5,2,16,17,2,2,17,20,4,20,8,19,18,15,8,14,20,12,9,10,2,2,12,3,16,3,10,6,20,19,14,19,7,13,11,1,12,16,18,14,15"
dtnsim.node[15].app.destinationEid = "92,8,209,130,29,159,11,12,108,193,52,200,109,189,63,196,114,233,201,61,88,164,120,194,47,105,5,120,51,62,37,191,172,201,128,133,61,236,60,236,27,109,88,146,111,25,135,214,111,196,226,115,43,134,101,14,174,78,133,215,69,238,206,84,226,76,187,59,197,61,123,13,64,18,160,50,88,103,149,218,38,138,45,214,53,16,175,65,63,194,139,97,109,38,229,145,146,120,191,150"
dtnsim.node[15].app.size = "50,50,500,50,200,50,50,200,200,100,500,200,200,50,50,500,500,500,50,200,200,100,50,100,50,500,500,100,500,200,50,100,100,100,100,50,200,500,200,500,500,500,100,500,500,500,500,200,200,50,200,200,500,50,50,100,100,200,500,500,50,100,50,200,100,50,200,200,50,500,200,500,500,200,200,100,50,200,500,100,50,100,50,500,500,50,500,200,100,50,500,200,100,50,200,500,500,200,100,100"
        # Node 16 random traffic
dtnsim.node[16].app.enable = true
dtnsim.node[16].app.bundlesNumber = "1,1,1,1,1,1,1,1,1,1,1,1,1,1,1,1,1,1,1,1,1,1,1,1,1,1,1,1,1,1,1,1,1,1,1,1,1,1,1,1,1,1,1,1,1,1,1,1,1,1,1,1,1,1,1,1,1,1,1,1,1,1,1,1,1,1,1,1,1,1,1,1,1,1,1,1,1,1,1,1,1,1,1,1,1,1,1,1,1,1,1,1,1,1,1,1,1,1,1,1"
dtnsim.node[16].app.start = "16,9,11,5,9,8,9,4,15,18,1,3,5,6,18,9,10,7,17,3,15,17,8,17,1,17,6,13,7,7,14,14,20,2,5,12,18,12,1,10,3,10,2,5,18,6,4,19,8,20,19,6,13,19,5,10,18,4,3,10,15,20,20,1,3,5,20,8,19,14,10,2,7,2,3,18,5,9,19,18,7,4,9,19,15,17,20,14,10,2,8,8,9,1,17,14,13,15,7,18"
dtnsim.node[16].app.destinationEid = "98,27,49,156,164,7,94,217,146,104,78,200,165,231,84,51,92,238,208,111,89,183,205,208,71,151,22,179,172,157,38,114,26,150,168,76,145,181,25,161,69,12,136,181,61,71,75,144,91,59,1,236,220,144,3,81,32,236,199,165,109,145,221,160,194,176,107,138,97,170,136,131,65,107,161,105,65,99,32,210,9,68,81,48,221,184,66,21,165,201,206,217,123,7,167,207,106,164,196,195"
dtnsim.node[16].app.size = "200,50,500,100,200,50,500,200,50,500,100,200,200,500,500,100,100,50,50,50,200,50,100,200,500,500,100,50,50,100,100,500,200,200,200,50,200,50,100,200,500,50,200,200,500,100,500,200,100,500,100,50,200,200,500,500,500,100,100,50,200,50,500,50,50,200,50,200,100,200,50,200,200,100,500,200,100,50,50,100,200,200,500,50,50,200,50,500,50,200,100,200,100,50,500,500,500,500,50,50"
        # Node 17 random traffic
dtnsim.node[17].app.enable = true
dtnsim.node[17].app.bundlesNumber = "1,1,1,1,1,1,1,1,1,1,1,1,1,1,1,1,1,1,1,1,1,1,1,1,1,1,1,1,1,1,1,1,1,1,1,1,1,1,1,1,1,1,1,1,1,1,1,1,1,1,1,1,1,1,1,1,1,1,1,1,1,1,1,1,1,1,1,1,1,1,1,1,1,1,1,1,1,1,1,1,1,1,1,1,1,1,1,1,1,1,1,1,1,1,1,1,1,1,1,1"
dtnsim.node[17].app.start = "17,20,14,13,11,7,9,5,2,16,12,11,6,15,8,16,11,9,2,18,1,16,12,13,7,12,16,19,1,16,7,9,2,15,19,11,12,14,2,11,17,9,18,10,6,17,17,18,8,6,11,8,20,8,15,19,20,11,13,2,3,18,15,10,14,17,1,17,16,1,7,11,15,13,4,2,11,2,9,12,8,5,13,8,12,4,6,13,12,17,2,15,16,18,11,17,9,13,11,1"
dtnsim.node[17].app.destinationEid = "55,138,168,116,18,134,133,18,83,58,164,233,152,171,59,128,209,112,191,43,48,60,95,75,220,135,46,50,32,189,61,103,174,240,69,39,136,76,5,75,219,63,86,72,144,26,210,200,183,72,3,47,236,36,208,27,7,34,61,57,187,155,25,99,43,127,4,226,46,226,220,111,21,190,231,34,53,72,62,21,136,146,191,172,215,53,138,216,165,14,24,151,174,69,28,146,1,177,203,189"
dtnsim.node[17].app.size = "100,200,100,200,100,50,100,500,50,50,500,200,50,50,200,100,200,500,500,50,500,200,100,500,500,50,100,50,200,200,500,50,200,200,500,500,100,50,50,50,500,500,50,500,200,500,500,200,100,500,200,100,100,200,100,200,50,200,100,50,100,200,200,50,200,200,50,500,100,500,500,100,100,200,100,50,200,100,50,100,500,200,100,200,100,50,200,100,200,500,200,50,100,200,200,200,500,50,500,50"
        # Node 18 random traffic
dtnsim.node[18].app.enable = true
dtnsim.node[18].app.bundlesNumber = "1,1,1,1,1,1,1,1,1,1,1,1,1,1,1,1,1,1,1,1,1,1,1,1,1,1,1,1,1,1,1,1,1,1,1,1,1,1,1,1,1,1,1,1,1,1,1,1,1,1,1,1,1,1,1,1,1,1,1,1,1,1,1,1,1,1,1,1,1,1,1,1,1,1,1,1,1,1,1,1,1,1,1,1,1,1,1,1,1,1,1,1,1,1,1,1,1,1,1,1"
dtnsim.node[18].app.start = "10,17,17,8,4,14,16,17,10,4,7,9,12,13,2,7,9,15,11,8,11,1,3,5,16,12,12,9,14,3,19,7,8,14,14,20,5,15,4,19,11,14,17,4,18,19,2,14,18,18,3,16,4,10,16,3,14,9,14,8,14,16,14,16,5,12,3,1,13,11,14,19,9,3,11,2,20,2,11,7,3,17,14,10,18,18,2,11,3,12,12,17,5,1,8,16,2,15,13,12"
dtnsim.node[18].app.destinationEid = "230,201,30,99,11,153,15,6,158,183,94,78,126,44,173,56,134,1,235,21,224,212,100,131,144,104,6,150,50,8,121,226,29,58,41,130,211,10,52,79,7,152,59,12,144,177,174,93,233,47,214,64,142,53,231,8,192,198,219,58,171,209,23,218,128,15,226,175,47,240,46,77,15,70,56,97,19,234,137,98,8,3,68,228,54,201,26,41,90,56,130,238,117,165,62,14,155,28,134,190"
dtnsim.node[18].app.size = "500,500,100,50,100,500,200,200,200,50,50,100,100,500,100,200,500,200,50,100,50,500,500,100,200,100,200,50,100,50,500,50,100,50,100,500,100,100,200,200,200,100,50,100,50,200,200,200,50,200,200,50,50,500,200,200,200,200,500,100,500,50,500,200,50,500,200,100,500,200,200,100,50,100,100,500,50,500,500,50,50,100,100,200,50,500,200,100,500,500,50,500,500,50,100,500,500,200,50,500"
        # Node 19 random traffic
dtnsim.node[19].app.enable = true
dtnsim.node[19].app.bundlesNumber = "1,1,1,1,1,1,1,1,1,1,1,1,1,1,1,1,1,1,1,1,1,1,1,1,1,1,1,1,1,1,1,1,1,1,1,1,1,1,1,1,1,1,1,1,1,1,1,1,1,1,1,1,1,1,1,1,1,1,1,1,1,1,1,1,1,1,1,1,1,1,1,1,1,1,1,1,1,1,1,1,1,1,1,1,1,1,1,1,1,1,1,1,1,1,1,1,1,1,1,1"
dtnsim.node[19].app.start = "1,4,5,2,14,5,5,16,16,17,14,13,5,19,9,11,15,18,12,1,15,17,14,7,8,4,1,9,15,18,19,17,2,1,7,7,17,14,15,11,4,13,4,10,19,7,15,8,17,19,6,10,5,14,18,1,10,3,13,5,13,1,19,11,7,1,13,2,6,12,5,20,1,15,2,20,1,16,12,2,8,14,16,13,9,19,16,14,1,1,5,10,12,3,8,8,8,6,7,3"
dtnsim.node[19].app.destinationEid = "124,12,34,7,68,110,146,80,81,78,22,68,167,47,149,238,237,196,179,72,184,91,214,206,55,110,238,23,65,134,101,20,146,70,44,164,197,210,217,177,10,229,58,184,2,229,135,44,117,229,121,127,14,61,83,65,202,184,225,47,117,34,215,164,240,203,60,95,54,38,63,206,172,105,214,73,207,209,180,135,211,103,237,135,203,114,184,235,221,191,68,200,221,83,129,206,30,108,108,43"
dtnsim.node[19].app.size = "50,50,200,500,500,500,500,200,200,50,200,100,50,200,200,200,100,50,200,500,50,100,500,200,50,100,200,100,50,50,200,200,500,50,500,50,50,200,50,200,200,50,200,200,500,100,500,500,100,500,500,200,500,200,200,500,100,100,500,100,100,500,200,100,50,500,50,50,500,500,200,500,500,100,50,200,500,50,50,200,100,200,100,100,50,200,500,50,50,50,200,500,200,500,100,200,100,100,50,500"
        # Node 20 random traffic
dtnsim.node[20].app.enable = true
dtnsim.node[20].app.bundlesNumber = "1,1,1,1,1,1,1,1,1,1,1,1,1,1,1,1,1,1,1,1,1,1,1,1,1,1,1,1,1,1,1,1,1,1,1,1,1,1,1,1,1,1,1,1,1,1,1,1,1,1,1,1,1,1,1,1,1,1,1,1,1,1,1,1,1,1,1,1,1,1,1,1,1,1,1,1,1,1,1,1,1,1,1,1,1,1,1,1,1,1,1,1,1,1,1,1,1,1,1,1"
dtnsim.node[20].app.start = "6,10,12,7,18,13,5,16,18,3,2,11,3,11,16,7,20,4,11,14,10,16,10,15,6,7,17,1,12,18,2,12,10,11,13,6,17,6,9,4,15,14,15,9,19,11,1,16,16,9,3,4,2,11,6,6,7,9,17,16,10,10,19,10,19,14,1,3,1,19,11,9,16,3,12,9,6,19,12,5,8,6,13,20,20,9,4,17,15,15,19,4,15,8,1,4,18,10,4,1"
dtnsim.node[20].app.destinationEid = "107,152,185,88,110,181,108,3,177,31,164,121,182,12,199,166,84,195,126,51,168,162,168,30,165,200,22,203,201,92,125,66,104,176,224,163,8,103,234,47,10,58,24,205,77,118,50,194,62,127,134,235,76,196,38,128,4,108,135,16,165,19,148,47,223,160,52,79,1,108,200,75,8,138,56,168,154,91,131,3,49,82,15,80,11,188,47,97,118,147,83,175,82,145,221,223,8,170,57,70"
dtnsim.node[20].app.size = "100,100,500,500,200,100,200,50,200,500,100,200,500,50,100,50,200,200,500,100,50,50,200,200,200,200,50,50,100,50,200,500,100,100,200,50,100,500,100,500,500,50,500,100,50,200,200,100,200,100,200,50,200,200,100,200,200,100,200,500,200,50,100,500,200,100,50,50,200,100,200,200,200,500,500,200,50,100,100,500,500,50,500,500,50,100,500,200,100,500,200,100,100,500,200,500,50,100,100,200"
        # Node 21 random traffic
dtnsim.node[21].app.enable = true
dtnsim.node[21].app.bundlesNumber = "1,1,1,1,1,1,1,1,1,1,1,1,1,1,1,1,1,1,1,1,1,1,1,1,1,1,1,1,1,1,1,1,1,1,1,1,1,1,1,1,1,1,1,1,1,1,1,1,1,1,1,1,1,1,1,1,1,1,1,1,1,1,1,1,1,1,1,1,1,1,1,1,1,1,1,1,1,1,1,1,1,1,1,1,1,1,1,1,1,1,1,1,1,1,1,1,1,1,1,1"
dtnsim.node[21].app.start = "14,3,19,5,17,4,18,17,17,11,14,10,6,13,11,6,7,19,6,20,2,15,13,19,17,17,9,19,9,7,19,20,20,3,7,6,1,5,12,17,1,20,1,19,1,6,10,5,15,11,6,4,2,13,20,5,11,14,13,11,18,2,20,14,6,6,5,7,12,12,7,19,20,10,8,2,4,14,10,14,17,3,18,8,8,2,17,18,12,5,1,8,6,6,3,10,13,3,2,4"
dtnsim.node[21].app.destinationEid = "187,133,5,158,187,202,65,92,152,204,103,54,95,186,155,145,71,36,103,99,48,75,182,202,23,130,47,103,178,122,170,150,233,149,57,235,91,79,176,36,45,23,138,122,91,121,14,204,52,103,63,49,166,98,122,72,70,92,160,15,216,175,210,175,144,200,91,200,141,22,78,50,140,178,154,186,125,129,12,114,180,85,191,41,79,89,34,207,203,128,229,234,206,237,102,71,50,30,151,199"
dtnsim.node[21].app.size = "100,500,50,200,100,200,100,100,500,500,100,50,100,200,50,200,200,500,500,500,200,50,100,100,100,200,50,500,200,500,500,500,500,200,500,50,50,100,500,500,100,500,200,500,200,50,50,100,100,50,50,500,100,50,50,100,50,100,500,200,500,200,100,50,200,100,50,200,500,200,50,200,500,500,100,200,100,50,100,200,500,200,50,100,200,50,100,500,50,100,100,50,100,200,200,50,50,100,200,500"
        # Node 22 random traffic
dtnsim.node[22].app.enable = true