[General]
network = src.dtnsim										
repeat = 1
allow-object-stealing-on-deletion = true

# Simulation end time
sim-time-limit = 84600s

# Nodes quantity (identifiers (EiDs) matches their index, EiD=0 is ignored)			
dtnsim.nodesNumber = 180
dtnsim.node[*].icon = "satellite"

# Nodes's failure rates
dtnsim.node[*].fault.enable = true
dtnsim.node[*].fault.meanTTF = 190s
dtnsim.node[*].fault.meanTTR = 10s

# Mobility
dtnsim.node[*].hasMobility = true
dtnsim.node[*].noradModule.satIndex = parentIndex()
dtnsim.node[*].noradModule.satName = "sat"
**.updateInterval = 20s
**.numOfSats = 180
**.satPerPlane = 15
**.altitude = 540
**.planes = 12
**.phaseOffset = 7

dtnsim.node[*].dtn.routing = "antop"
dtnsim.node[*].dtn.printRoutingDebug = true

# --- Random Traffic Configuration ---
# Node 1 random traffic
dtnsim.node[1].app.enable = true
dtnsim.node[1].app.bundlesNumber = "1,1,1,1,1,1,1,1,1,1,1,1,1,1,1,1,1,1,1,1,1,1,1,1,1,1,1,1,1,1,1,1,1,1,1,1,1,1,1,1,1,1,1,1,1,1,1,1,1,1,1,1,1,1,1,1,1,1,1,1,1,1,1,1,1,1,1,1,1,1,1,1,1,1,1,1,1,1,1,1,1,1,1,1,1,1,1,1,1,1,1,1,1,1,1,1,1,1,1,1"
dtnsim.node[1].app.start = "1,15,17,5,10,20,9,4,4,19,6,3,16,5,15,16,18,14,14,17,2,5,14,2,14,1,8,5,4,14,13,11,10,7,12,9,3,7,14,20,20,9,3,12,3,17,17,12,11,7,6,6,8,19,17,11,20,14,10,19,1,20,12,4,8,20,3,14,20,8,9,2,19,2,17,6,19,7,5,14,18,14,3,10,11,18,15,15,12,6,14,2,18,8,8,19,5,13,3,20"
dtnsim.node[1].app.destinationEid = "17,62,152,10,58,33,27,138,17,143,116,143,86,116,149,85,112,125,89,162,71,14,99,13,60,71,21,162,70,177,3,70,78,64,7,82,170,99,149,81,54,22,88,174,108,106,161,64,25,13,62,164,130,28,13,74,167,148,15,144,153,71,126,149,165,87,10,97,106,176,58,8,28,148,77,32,6,160,57,82,106,21,56,151,2,49,77,123,10,122,22,112,79,128,176,65,46,14,81,145"
dtnsim.node[1].app.size = "200,500,500,200,50,500,50,200,50,500,200,500,50,500,200,500,50,200,50,100,50,50,500,500,100,200,50,200,50,100,500,500,200,500,500,100,50,50,50,100,500,500,50,500,50,200,100,50,100,50,100,200,500,500,200,50,100,100,100,50,50,200,200,500,100,100,200,500,500,500,50,50,200,100,500,100,50,500,200,200,50,100,100,500,500,200,200,50,200,500,100,500,50,50,500,100,100,500,500,100"
        # Node 2 random traffic
dtnsim.node[2].app.enable = true
dtnsim.node[2].app.bundlesNumber = "1,1,1,1,1,1,1,1,1,1,1,1,1,1,1,1,1,1,1,1,1,1,1,1,1,1,1,1,1,1,1,1,1,1,1,1,1,1,1,1,1,1,1,1,1,1,1,1,1,1,1,1,1,1,1,1,1,1,1,1,1,1,1,1,1,1,1,1,1,1,1,1,1,1,1,1,1,1,1,1,1,1,1,1,1,1,1,1,1,1,1,1,1,1,1,1,1,1,1,1"
dtnsim.node[2].app.start = "13,1,17,9,1,12,15,1,11,16,9,15,18,3,3,9,20,5,8,3,12,20,15,3,14,15,13,18,4,8,5,6,1,4,3,13,11,17,19,13,18,2,12,12,20,1,12,20,9,7,12,12,1,4,3,14,9,5,18,19,10,2,20,2,10,14,7,19,8,2,12,13,10,8,6,8,3,11,9,9,2,18,15,3,2,7,19,3,12,14,13,16,17,6,16,9,8,9,12,13"
dtnsim.node[2].app.destinationEid = "75,58,92,22,162,3,97,105,114,73,85,132,41,139,47,151,156,23,75,93,167,105,131,49,59,118,65,172,176,129,22,140,56,85,161,36,127,81,95,157,157,1,105,125,159,168,72,95,122,121,38,113,159,170,6,126,134,39,150,67,70,108,69,147,162,43,57,126,180,37,27,79,80,143,5,129,55,24,145,154,137,121,103,54,124,157,81,131,81,42,150,77,135,155,126,101,119,55,31,24"
dtnsim.node[2].app.size = "50,500,500,50,50,200,50,500,200,100,50,500,500,100,500,500,50,500,50,500,500,50,200,100,200,200,200,200,500,200,200,200,500,100,50,500,200,500,200,100,200,200,50,100,500,500,200,50,50,500,50,50,100,200,500,200,200,100,200,500,200,50,500,100,200,100,100,200,50,500,100,50,500,500,50,100,50,100,50,200,50,50,200,50,50,50,200,200,50,50,50,50,100,200,50,500,50,200,200,50"
        # Node 3 random traffic
dtnsim.node[3].app.enable = true
dtnsim.node[3].app.bundlesNumber = "1,1,1,1,1,1,1,1,1,1,1,1,1,1,1,1,1,1,1,1,1,1,1,1,1,1,1,1,1,1,1,1,1,1,1,1,1,1,1,1,1,1,1,1,1,1,1,1,1,1,1,1,1,1,1,1,1,1,1,1,1,1,1,1,1,1,1,1,1,1,1,1,1,1,1,1,1,1,1,1,1,1,1,1,1,1,1,1,1,1,1,1,1,1,1,1,1,1,1,1"
dtnsim.node[3].app.start = "11,11,18,18,12,13,15,2,19,8,19,1,18,7,2,13,6,15,12,9,20,12,11,17,14,18,14,7,14,16,6,18,15,16,5,11,19,9,10,6,9,19,20,18,4,20,6,14,20,8,12,19,13,20,18,11,11,6,1,4,11,6,3,20,20,3,11,12,7,4,11,14,14,18,9,12,16,4,5,7,19,4,4,11,7,6,7,14,20,1,10,18,12,20,17,1,13,7,5,6"
dtnsim.node[3].app.destinationEid = "23,80,47,10,92,136,6,164,91,179,168,70,19,24,7,5,91,74,177,6,2,5,82,147,9,180,27,51,28,98,7,146,89,114,108,118,138,176,63,66,139,10,122,178,104,117,99,125,13,5,68,16,171,27,126,158,78,1,142,148,10,50,116,135,163,148,99,100,59,4,156,135,132,104,176,176,57,138,32,34,14,2,142,127,23,68,156,107,13,140,49,15,16,66,8,88,81,45,66,177"
dtnsim.node[3].app.size = "500,100,500,50,100,500,500,200,500,500,50,50,100,50,500,100,100,100,200,500,200,500,500,100,100,200,100,50,500,100,50,200,500,500,200,100,500,50,200,200,500,50,500,500,200,500,100,500,200,500,500,500,200,50,200,100,200,200,500,100,500,500,50,500,100,500,50,50,500,500,100,500,200,100,100,200,500,500,100,100,500,100,200,500,50,500,500,500,50,500,100,200,500,100,100,50,50,500,100,500"
        # Node 4 random traffic
dtnsim.node[4].app.enable = true
dtnsim.node[4].app.bundlesNumber = "1,1,1,1,1,1,1,1,1,1,1,1,1,1,1,1,1,1,1,1,1,1,1,1,1,1,1,1,1,1,1,1,1,1,1,1,1,1,1,1,1,1,1,1,1,1,1,1,1,1,1,1,1,1,1,1,1,1,1,1,1,1,1,1,1,1,1,1,1,1,1,1,1,1,1,1,1,1,1,1,1,1,1,1,1,1,1,1,1,1,1,1,1,1,1,1,1,1,1,1"
dtnsim.node[4].app.start = "2,16,17,12,2,1,17,20,1,1,18,11,6,11,11,20,14,1,9,4,11,6,8,2,2,6,1,13,8,20,12,18,2,8,19,17,15,5,2,6,9,17,5,18,17,2,7,13,8,20,20,7,14,15,2,18,9,14,20,9,16,12,12,10,8,10,20,4,13,20,16,7,3,17,20,16,9,8,18,15,7,20,11,13,9,10,8,7,13,17,1,18,16,19,12,4,2,18,13,10"
dtnsim.node[4].app.destinationEid = "108,101,78,171,64,19,157,120,114,110,172,64,143,47,99,5,58,144,5,137,2,106,16,15,121,77,166,11,126,82,140,90,38,39,29,162,52,17,41,146,88,73,148,162,32,150,71,166,79,130,150,149,132,83,10,72,112,80,150,63,166,9,5,54,161,134,47,3,59,51,152,18,174,64,134,50,120,95,40,31,78,144,173,178,25,115,16,57,153,12,28,79,16,19,111,155,23,45,48,107"
dtnsim.node[4].app.size = "500,100,50,500,200,200,100,100,200,100,200,500,50,500,200,200,200,200,100,50,50,50,50,50,50,100,50,50,200,200,50,200,200,500,100,100,100,50,200,500,500,500,50,50,100,200,50,500,100,100,200,50,50,500,100,50,100,50,200,100,200,200,100,100,100,200,50,100,50,200,200,200,50,50,100,500,200,200,500,500,100,200,200,50,100,50,100,100,50,500,500,500,100,100,500,200,500,200,100,50"
        # Node 5 random traffic
dtnsim.node[5].app.enable = true
dtnsim.node[5].app.bundlesNumber = "1,1,1,1,1,1,1,1,1,1,1,1,1,1,1,1,1,1,1,1,1,1,1,1,1,1,1,1,1,1,1,1,1,1,1,1,1,1,1,1,1,1,1,1,1,1,1,1,1,1,1,1,1,1,1,1,1,1,1,1,1,1,1,1,1,1,1,1,1,1,1,1,1,1,1,1,1,1,1,1,1,1,1,1,1,1,1,1,1,1,1,1,1,1,1,1,1,1,1,1"
dtnsim.node[5].app.start = "16,4,1,20,8,16,12,18,18,18,13,18,11,14,8,7,12,10,17,11,7,9,10,8,5,11,7,11,12,20,12,9,20,11,13,7,2,7,20,12,13,17,1,12,10,9,6,8,18,1,12,8,5,18,14,7,5,19,16,7,4,6,3,18,3,4,11,3,2,9,15,11,3,3,16,4,2,18,8,12,4,5,19,2,7,1,3,2,13,2,1,14,11,4,12,10,19,17,17,9"
dtnsim.node[5].app.destinationEid = "53,172,122,167,82,171,21,19,129,42,88,91,180,168,1,119,43,52,128,89,157,32,69,12,141,62,174,51,141,48,93,147,47,175,153,64,23,86,92,44,175,115,51,39,64,76,167,153,173,81,17,156,130,20,73,71,156,100,153,164,85,59,55,93,121,91,116,30,47,39,20,76,16,65,71,46,78,29,25,63,174,141,54,95,114,29,38,48,9,130,145,50,123,39,96,178,176,163,128,137"
dtnsim.node[5].app.size = "200,50,500,100,100,500,100,100,50,50,200,50,500,200,200,100,500,500,500,50,500,200,200,100,100,100,50,50,200,100,50,200,50,500,50,200,500,50,50,500,200,500,50,500,100,200,50,200,100,50,500,100,500,50,50,100,50,100,50,100,200,500,50,50,100,100,500,500,50,200,200,500,200,100,500,500,200,100,500,500,500,500,100,50,50,50,50,50,100,100,200,100,50,100,100,200,50,500,500,50"
        # Node 6 random traffic
dtnsim.node[6].app.enable = true
dtnsim.node[6].app.bundlesNumber = "1,1,1,1,1,1,1,1,1,1,1,1,1,1,1,1,1,1,1,1,1,1,1,1,1,1,1,1,1,1,1,1,1,1,1,1,1,1,1,1,1,1,1,1,1,1,1,1,1,1,1,1,1,1,1,1,1,1,1,1,1,1,1,1,1,1,1,1,1,1,1,1,1,1,1,1,1,1,1,1,1,1,1,1,1,1,1,1,1,1,1,1,1,1,1,1,1,1,1,1"
dtnsim.node[6].app.start = "3,19,7,14,2,10,7,1,8,14,14,7,7,2,19,12,4,12,6,10,11,4,7,4,9,14,9,2,16,5,17,8,16,2,5,7,11,12,10,17,18,11,10,1,6,18,5,2,5,12,9,7,20,14,10,18,17,5,7,2,13,7,2,16,14,10,18,17,5,15,20,12,13,6,15,17,4,7,12,10,5,18,5,17,12,6,16,15,11,14,20,14,20,6,5,12,4,6,3,13"
dtnsim.node[6].app.destinationEid = "84,65,85,178,100,158,29,128,171,130,29,130,156,146,47,141,39,147,170,44,50,104,116,170,133,120,114,47,20,73,145,1,131,60,127,26,174,70,19,115,30,172,46,23,10,179,95,155,79,140,150,5,172,60,169,36,163,159,53,139,25,67,17,134,19,112,102,31,85,4,95,149,10,173,73,139,88,65,75,83,12,144,21,159,84,56,54,75,160,112,161,62,125,146,148,87,10,68,124,34"
dtnsim.node[6].app.size = "200,500,100,200,500,50,500,50,500,500,100,50,50,500,500,200,100,100,200,500,50,50,500,100,500,100,500,200,50,50,200,200,500,100,200,100,100,50,50,200,50,50,500,200,100,200,200,100,200,200,100,200,200,200,500,200,200,50,200,200,100,500,50,100,50,500,50,500,200,200,100,200,100,500,50,100,500,100,50,50,200,500,50,100,200,100,200,500,50,50,100,200,200,50,50,50,50,50,200,50"
        # Node 7 random traffic
dtnsim.node[7].app.enable = true
dtnsim.node[7].app.bundlesNumber = "1,1,1,1,1,1,1,1,1,1,1,1,1,1,1,1,1,1,1,1,1,1,1,1,1,1,1,1,1,1,1,1,1,1,1,1,1,1,1,1,1,1,1,1,1,1,1,1,1,1,1,1,1,1,1,1,1,1,1,1,1,1,1,1,1,1,1,1,1,1,1,1,1,1,1,1,1,1,1,1,1,1,1,1,1,1,1,1,1,1,1,1,1,1,1,1,1,1,1,1"
dtnsim.node[7].app.start = "16,1,5,2,4,12,12,7,8,10,16,6,15,2,10,16,2,5,11,14,11,9,12,13,11,16,13,13,7,15,3,6,19,14,17,5,15,20,6,2,12,13,9,5,11,3,1,6,2,13,16,14,14,4,3,17,9,15,12,20,8,20,2,7,9,17,6,13,3,1,9,16,20,8,14,19,7,11,10,3,5,5,11,8,11,7,12,6,14,4,16,5,4,4,9,8,19,14,7,16"
dtnsim.node[7].app.destinationEid = "74,120,88,115,22,59,17,55,42,112,61,85,148,151,58,128,120,168,52,107,86,52,126,103,73,92,88,164,118,164,142,94,140,119,46,175,162,150,162,62,142,47,136,23,116,179,75,142,19,169,58,35,48,60,20,1,53,103,84,12,122,78,51,115,125,150,129,69,96,87,68,142,88,27,62,180,151,31,4,5,142,94,93,120,93,116,175,107,58,30,73,109,27,121,71,126,21,157,71,163"
dtnsim.node[7].app.size = "50,500,200,100,500,100,50,100,50,100,50,50,500,50,50,500,500,100,500,50,100,200,100,200,500,100,200,100,200,500,50,100,50,200,200,500,200,500,200,100,50,200,200,200,50,50,100,50,50,50,50,200,500,50,500,100,200,100,50,200,200,100,50,200,100,200,50,200,50,200,200,500,500,50,500,500,200,100,50,100,100,100,500,200,500,200,100,100,100,100,50,500,500,50,500,50,500,200,200,200"
        # Node 8 random traffic
dtnsim.node[8].app.enable = true
dtnsim.node[8].app.bundlesNumber = "1,1,1,1,1,1,1,1,1,1,1,1,1,1,1,1,1,1,1,1,1,1,1,1,1,1,1,1,1,1,1,1,1,1,1,1,1,1,1,1,1,1,1,1,1,1,1,1,1,1,1,1,1,1,1,1,1,1,1,1,1,1,1,1,1,1,1,1,1,1,1,1,1,1,1,1,1,1,1,1,1,1,1,1,1,1,1,1,1,1,1,1,1,1,1,1,1,1,1,1"
dtnsim.node[8].app.start = "8,12,2,6,16,8,13,6,5,7,10,12,7,19,18,20,10,20,6,12,20,3,5,18,13,9,20,16,7,16,2,15,14,17,2,11,1,8,19,20,1,14,7,6,11,10,14,19,4,7,15,12,16,1,8,1,17,1,6,8,10,12,16,2,3,19,16,11,15,10,13,19,20,4,6,7,6,19,5,20,16,4,18,6,17,10,6,15,13,20,1,14,9,17,11,9,17,12,18,12"
dtnsim.node[8].app.destinationEid = "45,174,115,9,2,90,105,10,149,178,48,69,67,149,59,108,73,179,89,20,4,127,162,107,13,151,164,174,177,64,20,16,29,9,65,160,96,172,137,127,37,82,79,177,14,56,178,168,165,164,65,139,133,125,104,45,165,179,175,5,29,13,150,170,81,3,135,50,120,23,21,47,171,18,118,36,78,44,88,28,180,106,142,118,41,42,29,38,144,131,89,46,7,144,118,104,32,137,174,67"
dtnsim.node[8].app.size = "50,100,50,500,100,200,500,100,50,50,100,50,50,500,200,100,50,50,100,500,200,200,500,200,200,50,500,200,50,100,200,50,50,100,100,100,500,500,50,200,200,200,500,100,200,200,200,50,100,200,500,50,50,200,200,500,50,200,50,50,500,500,50,50,200,50,500,100,100,500,500,200,100,500,100,50,100,100,500,100,100,200,200,200,100,500,200,100,200,100,500,200,500,50,50,200,200,100,500,100"
        # Node 9 random traffic
dtnsim.node[9].app.enable = true
dtnsim.node[9].app.bundlesNumber = "1,1,1,1,1,1,1,1,1,1,1,1,1,1,1,1,1,1,1,1,1,1,1,1,1,1,1,1,1,1,1,1,1,1,1,1,1,1,1,1,1,1,1,1,1,1,1,1,1,1,1,1,1,1,1,1,1,1,1,1,1,1,1,1,1,1,1,1,1,1,1,1,1,1,1,1,1,1,1,1,1,1,1,1,1,1,1,1,1,1,1,1,1,1,1,1,1,1,1,1"
dtnsim.node[9].app.start = "17,13,13,13,14,20,16,10,13,6,11,6,12,11,10,18,7,9,14,17,10,17,6,16,2,11,6,7,1,5,8,18,13,18,13,13,12,13,13,5,16,11,18,10,16,17,8,13,12,7,3,17,13,14,9,11,14,19,2,6,13,15,4,6,17,17,14,18,8,19,15,20,14,18,8,14,1,7,5,8,14,4,16,11,11,13,11,1,2,10,3,12,8,4,17,19,18,16,19,10"
dtnsim.node[9].app.destinationEid = "175,161,147,119,60,82,72,70,26,76,117,83,64,156,29,77,91,163,129,174,43,147,68,128,55,25,151,178,132,56,74,59,40,88,18,86,135,4,168,154,69,94,56,26,173,152,15,80,19,47,79,111,86,8,65,157,64,61,143,124,71,84,66,32,6,55,149,78,127,114,25,97,12,42,72,166,137,155,15,160,167,86,73,137,146,72,105,66,78,70,124,69,102,6,59,75,174,27,104,97"
dtnsim.node[9].app.size = "50,500,500,500,100,200,200,200,100,200,100,50,100,500,50,500,100,100,200,200,100,200,100,200,50,500,50,50,500,200,50,500,200,500,500,500,100,200,200,100,500,200,200,50,200,100,100,100,200,100,500,50,500,200,200,200,100,200,100,100,200,100,200,100,50,200,100,200,100,50,200,100,500,200,200,500,500,500,50,200,200,200,500,100,100,200,200,500,200,200,50,200,50,500,500,200,50,200,50,50"
        # Node 10 random traffic
dtnsim.node[10].app.enable = true
dtnsim.node[10].app.bundlesNumber = "1,1,1,1,1,1,1,1,1,1,1,1,1,1,1,1,1,1,1,1,1,1,1,1,1,1,1,1,1,1,1,1,1,1,1,1,1,1,1,1,1,1,1,1,1,1,1,1,1,1,1,1,1,1,1,1,1,1,1,1,1,1,1,1,1,1,1,1,1,1,1,1,1,1,1,1,1,1,1,1,1,1,1,1,1,1,1,1,1,1,1,1,1,1,1,1,1,1,1,1"
dtnsim.node[10].app.start = "6,11,5,13,20,19,15,10,9,16,5,13,18,17,16,15,10,11,7,10,4,13,8,13,15,7,6,17,3,20,15,18,15,7,1,2,3,9,20,1,3,3,17,3,12,3,18,1,10,12,17,12,2,5,12,9,4,18,11,16,20,4,13,1,1,14,6,18,18,18,13,12,12,19,12,12,6,5,13,9,20,5,1,16,2,20,10,15,11,1,9,17,20,1,5,14,3,20,15,16"
dtnsim.node[10].app.destinationEid = "72,18,141,30,178,100,146,75,132,97,168,173,52,105,118,146,101,63,175,30,110,20,94,88,174,148,91,97,70,50,32,171,86,46,134,101,88,145,88,146,65,175,128,172,114,122,128,27,179,34,41,160,68,62,80,115,106,38,138,82,55,81,71,70,80,73,77,98,73,152,145,162,102,14,171,40,150,139,40,113,54,126,62,175,12,20,173,100,169,72,110,133,72,100,70,109,124,73,50,168"
dtnsim.node[10].app.size = "500,200,500,500,200,500,200,50,50,100,500,200,500,100,200,50,200,100,100,500,50,500,200,200,100,50,50,100,500,200,100,500,200,50,100,100,100,500,500,50,50,200,100,50,500,50,500,50,100,50,200,500,100,200,200,200,500,100,100,500,200,100,100,100,200,100,50,500,500,500,200,50,100,500,500,500,100,100,100,50,200,100,100,200,200,500,50,500,200,50,200,500,100,100,500,50,500,50,200,100"
        # Node 11 random traffic
dtnsim.node[11].app.enable = true
dtnsim.node[11].app.bundlesNumber = "1,1,1,1,1,1,1,1,1,1,1,1,1,1,1,1,1,1,1,1,1,1,1,1,1,1,1,1,1,1,1,1,1,1,1,1,1,1,1,1,1,1,1,1,1,1,1,1,1,1,1,1,1,1,1,1,1,1,1,1,1,1,1,1,1,1,1,1,1,1,1,1,1,1,1,1,1,1,1,1,1,1,1,1,1,1,1,1,1,1,1,1,1,1,1,1,1,1,1,1"
dtnsim.node[11].app.start = "16,4,4,3,12,2,6,13,18,2,3,4,13,7,15,20,10,18,17,11,16,10,16,2,5,20,11,2,20,7,18,20,11,6,8,12,12,2,10,3,6,7,13,4,12,1,7,18,9,14,16,10,2,12,19,20,6,11,6,20,18,18,10,12,12,19,4,14,16,8,7,3,20,12,1,3,4,2,11,3,7,10,19,3,17,1,16,2,3,20,7,10,1,7,15,15,18,9,14,16"
dtnsim.node[11].app.destinationEid = "76,78,16,90,121,140,68,115,124,113,72,98,179,38,52,128,39,108,37,19,143,178,5,21,175,105,33,20,43,81,118,128,51,75,65,1,45,62,52,105,28,8,62,8,90,76,163,81,41,37,125,145,56,79,129,77,144,30,167,47,169,91,106,20,80,165,133,64,137,27,7,45,49,87,82,64,91,63,162,177,60,152,113,94,129,137,37,76,28,147,76,36,78,68,91,50,142,25,114,15"
dtnsim.node[11].app.size = "500,100,100,500,50,50,500,200,50,200,500,100,50,500,500,200,50,200,100,100,500,200,200,500,50,100,500,50,500,100,50,50,500,50,500,50,500,500,500,100,100,50,200,200,100,500,50,200,50,200,500,200,50,500,50,500,200,200,500,100,50,50,50,50,200,100,500,500,200,50,50,100,500,50,50,200,500,200,50,50,100,100,200,50,200,100,500,500,50,200,50,200,50,100,50,200,200,200,50,200"
        # Node 12 random traffic
dtnsim.node[12].app.enable = true
dtnsim.node[12].app.bundlesNumber = "1,1,1,1,1,1,1,1,1,1,1,1,1,1,1,1,1,1,1,1,1,1,1,1,1,1,1,1,1,1,1,1,1,1,1,1,1,1,1,1,1,1,1,1,1,1,1,1,1,1,1,1,1,1,1,1,1,1,1,1,1,1,1,1,1,1,1,1,1,1,1,1,1,1,1,1,1,1,1,1,1,1,1,1,1,1,1,1,1,1,1,1,1,1,1,1,1,1,1,1"
dtnsim.node[12].app.start = "12,8,17,5,8,8,11,12,3,1,8,16,3,4,8,10,7,15,19,3,14,13,18,20,8,18,2,20,8,13,8,1,19,5,7,19,5,7,20,10,11,8,12,15,17,11,2,16,4,6,11,10,12,6,4,6,11,17,20,19,10,4,10,16,7,2,16,10,16,20,17,6,6,3,1,2,1,15,9,11,18,4,18,9,8,16,15,10,5,9,8,10,12,5,18,1,7,5,12,12"
dtnsim.node[12].app.destinationEid = "37,96,143,110,97,48,119,10,179,62,40,179,24,3,42,95,2,142,161,102,171,63,58,168,124,156,144,62,104,89,96,168,97,107,55,52,175,105,132,137,153,160,48,93,1,162,132,33,63,71,7,54,53,4,32,64,54,85,136,66,170,113,108,169,7,121,42,125,79,157,49,88,43,160,63,4,137,77,5,47,110,107,145,137,87,14,128,167,85,17,166,133,80,72,180,15,152,84,45,99"
dtnsim.node[12].app.size = "50,500,200,500,200,100,50,50,50,100,100,200,100,500,100,500,200,100,50,200,200,100,500,500,200,50,100,200,500,50,500,100,200,50,500,50,100,200,500,50,200,200,500,500,200,200,100,500,100,200,500,200,500,200,100,50,100,100,100,200,500,50,500,500,200,50,100,200,200,50,100,50,100,500,50,200,50,100,100,50,200,500,50,500,500,500,200,200,500,100,100,500,200,200,500,50,100,500,50,200"
        # Node 13 random traffic
dtnsim.node[13].app.enable = true
dtnsim.node[13].app.bundlesNumber = "1,1,1,1,1,1,1,1,1,1,1,1,1,1,1,1,1,1,1,1,1,1,1,1,1,1,1,1,1,1,1,1,1,1,1,1,1,1,1,1,1,1,1,1,1,1,1,1,1,1,1,1,1,1,1,1,1,1,1,1,1,1,1,1,1,1,1,1,1,1,1,1,1,1,1,1,1,1,1,1,1,1,1,1,1,1,1,1,1,1,1,1,1,1,1,1,1,1,1,1"
dtnsim.node[13].app.start = "1,9,19,10,18,11,16,8,8,8,6,5,1,18,13,15,15,13,3,18,18,1,19,11,11,11,9,1,9,10,11,19,16,8,8,2,18,11,16,7,3,11,20,13,11,3,14,4,9,12,20,18,10,10,9,15,12,15,16,5,3,9,15,4,16,13,14,8,9,10,11,6,15,7,2,18,4,12,19,15,2,15,4,1,7,12,12,14,11,13,9,8,17,1,13,17,11,15,8,8"
dtnsim.node[13].app.destinationEid = "21,6,26,73,78,180,86,103,101,145,109,39,176,83,140,21,11,14,60,76,164,141,138,62,89,35,12,32,135,40,131,107,117,25,61,56,170,86,9,45,48,164,144,179,173,166,93,38,18,169,5,175,36,69,36,88,96,3,2,122,41,75,41,4,124,63,1,10,68,44,74,126,49,87,30,54,29,177,63,49,1,171,103,155,130,46,25,82,161,28,80,85,134,136,115,102,111,51,169,68"
dtnsim.node[13].app.size = "50,500,100,500,500,100,500,100,500,100,50,500,50,100,200,100,500,100,50,100,100,50,200,100,200,50,200,100,500,500,500,100,100,500,100,100,50,50,500,200,500,50,100,200,500,500,200,50,100,200,500,100,500,100,100,50,200,500,200,50,500,500,50,100,200,50,200,50,100,100,50,50,50,500,50,100,50,200,100,50,200,100,100,500,50,100,200,200,200,200,500,100,500,500,500,100,100,50,500,50"
        # Node 14 random traffic
dtnsim.node[14].app.enable = true
dtnsim.node[14].app.bundlesNumber = "1,1,1,1,1,1,1,1,1,1,1,1,1,1,1,1,1,1,1,1,1,1,1,1,1,1,1,1,1,1,1,1,1,1,1,1,1,1,1,1,1,1,1,1,1,1,1,1,1,1,1,1,1,1,1,1,1,1,1,1,1,1,1,1,1,1,1,1,1,1,1,1,1,1,1,1,1,1,1,1,1,1,1,1,1,1,1,1,1,1,1,1,1,1,1,1,1,1,1,1"
dtnsim.node[14].app.start = "18,15,3,13,2,2,2,1,18,17,5,14,12,6,19,9,14,7,9,5,14,19,9,17,11,10,18,10,7,6,17,4,18,15,5,5,19,15,1,17,13,6,4,6,18,4,18,19,11,13,10,20,7,4,11,16,20,11,11,17,10,7,15,10,14,9,18,18,7,19,13,3,14,12,17,13,8,19,14,1,4,8,20,18,11,7,18,5,11,7,20,14,15,1,3,6,17,15,1,4"
dtnsim.node[14].app.destinationEid = "155,177,7,116,66,2,90,48,19,30,173,154,64,35,36,135,166,82,69,58,101,96,99,62,78,81,34,161,89,97,55,115,96,62,100,175,149,139,133,124,81,140,156,39,168,166,105,125,29,55,84,43,166,174,171,59,147,116,131,35,18,137,68,87,124,106,45,24,168,69,84,11,153,180,177,149,159,164,28,159,54,136,150,27,157,90,125,55,1,46,135,51,87,138,9,176,131,18,157,147"
dtnsim.node[14].app.size = "200,500,50,50,500,500,100,100,200,200,500,100,200,500,100,200,200,500,200,500,500,50,200,500,100,50,50,100,50,100,500,500,50,500,500,200,100,500,500,200,200,50,200,200,200,100,50,500,500,500,200,200,500,100,50,500,100,100,200,200,50,100,500,50,50,200,500,50,200,100,50,500,200,500,200,50,100,50,200,100,100,500,50,100,100,50,500,200,50,100,500,50,500,500,500,500,50,50,500,50"
        # Node 15 random traffic
dtnsim.node[15].app.enable = true
dtnsim.node[15].app.bundlesNumber = "1,1,1,1,1,1,1,1,1,1,1,1,1,1,1,1,1,1,1,1,1,1,1,1,1,1,1,1,1,1,1,1,1,1,1,1,1,1,1,1,1,1,1,1,1,1,1,1,1,1,1,1,1,1,1,1,1,1,1,1,1,1,1,1,1,1,1,1,1,1,1,1,1,1,1,1,1,1,1,1,1,1,1,1,1,1,1,1,1,1,1,1,1,1,1,1,1,1,1,1"
dtnsim.node[15].app.start = "8,19,16,10,6,7,9,1,16,15,17,5,12,2,4,12,5,12,10,12,12,17,3,3,8,6,5,3,9,19,3,10,3,20,5,17,2,16,6,15,12,17,15,14,5,16,2,2,17,3,17,13,20,3,12,4,12,17,4,8,10,1,2,6,17,9,11,10,17,19,17,11,19,12,5,14,18,18,8,10,5,11,10,9,17,2,18,2,7,5,8,14,5,14,14,14,2,18,8,4"
dtnsim.node[15].app.destinationEid = "39,35,10,157,160,91,163,41,47,21,63,34,130,128,118,91,106,160,158,175,47,155,12,174,37,130,55,25,40,157,106,155,80,51,119,43,163,109,143,133,169,22,93,61,32,135,107,114,106,3,38,73,148,56,157,120,116,133,3,24,7,155,82,34,84,74,5,162,10,115,109,50,134,172,48,10,86,34,167,98,34,90,88,68,175,104,174,152,177,171,155,135,145,159,64,68,169,112,127,111"
dtnsim.node[15].app.size = "100,100,500,500,500,200,500,50,200,200,50,200,500,200,50,100,500,200,100,200,100,200,50,50,100,200,100,500,500,500,100,500,100,200,100,200,500,500,200,200,200,50,200,500,500,500,100,500,100,200,50,200,50,500,100,500,200,50,500,200,100,200,200,100,100,500,50,500,200,50,500,100,50,100,50,200,200,100,50,500,500,500,200,50,500,200,500,500,500,200,100,100,200,500,100,500,100,500,100,500"
        # Node 16 random traffic
dtnsim.node[16].app.enable = true
dtnsim.node[16].app.bundlesNumber = "1,1,1,1,1,1,1,1,1,1,1,1,1,1,1,1,1,1,1,1,1,1,1,1,1,1,1,1,1,1,1,1,1,1,1,1,1,1,1,1,1,1,1,1,1,1,1,1,1,1,1,1,1,1,1,1,1,1,1,1,1,1,1,1,1,1,1,1,1,1,1,1,1,1,1,1,1,1,1,1,1,1,1,1,1,1,1,1,1,1,1,1,1,1,1,1,1,1,1,1"
dtnsim.node[16].app.start = "3,20,4,10,15,6,10,19,20,15,16,8,11,15,8,8,4,19,6,3,10,7,8,14,7,17,11,9,17,13,3,13,13,9,7,13,9,6,12,8,14,4,8,7,5,15,16,2,14,14,7,5,3,8,4,19,12,14,13,16,18,6,4,4,9,18,20,10,16,1,17,13,8,1,3,3,10,9,17,8,2,13,4,14,6,14,7,4,19,16,2,7,1,16,4,17,13,8,3,20"
dtnsim.node[16].app.destinationEid = "139,127,25,172,136,70,107,131,73,51,23,53,72,68,158,86,113,59,26,60,155,156,41,173,152,62,153,17,37,93,48,65,11,157,45,24,49,84,39,150,1,179,111,137,55,18,118,4,172,6,174,122,160,164,3,74,85,13,151,106,57,157,111,23,105,71,23,173,106,135,53,22,161,76,107,171,94,98,150,3,163,71,70,139,21,52,109,145,177,76,46,125,47,76,55,131,99,121,109,137"
dtnsim.node[16].app.size = "50,500,50,500,200,50,200,100,100,50,200,200,50,500,100,500,50,100,500,200,50,100,500,50,50,200,50,50,500,50,200,500,100,100,100,100,200,100,50,200,50,50,100,100,100,50,50,500,100,500,200,500,100,100,50,200,200,100,200,50,50,200,500,500,50,200,200,200,50,100,500,50,200,500,100,200,200,200,50,50,50,200,200,50,500,500,100,200,50,200,500,100,200,200,500,500,100,500,200,100"
        # Node 17 random traffic
dtnsim.node[17].app.enable = true
dtnsim.node[17].app.bundlesNumber = "1,1,1,1,1,1,1,1,1,1,1,1,1,1,1,1,1,1,1,1,1,1,1,1,1,1,1,1,1,1,1,1,1,1,1,1,1,1,1,1,1,1,1,1,1,1,1,1,1,1,1,1,1,1,1,1,1,1,1,1,1,1,1,1,1,1,1,1,1,1,1,1,1,1,1,1,1,1,1,1,1,1,1,1,1,1,1,1,1,1,1,1,1,1,1,1,1,1,1,1"
dtnsim.node[17].app.start = "14,14,19,16,17,19,11,2,14,15,19,3,12,1,16,5,8,10,15,14,19,10,16,1,17,4,5,3,4,4,11,14,14,4,16,15,5,2,15,16,2,10,9,9,20,7,16,1,4,12,7,10,11,15,10,12,12,18,11,16,4,19,1,3,1,4,17,11,10,18,11,19,4,15,20,14,15,5,3,13,8,14,4,1,4,8,3,16,5,3,16,10,9,10,19,2,15,19,15,3"
dtnsim.node[17].app.destinationEid = "76,107,88,180,35,157,132,30,112,138,6,102,172,45,51,154,130,161,41,41,8,116,27,47,121,39,120,70,92,33,161,111,161,145,35,28,118,97,157,145,65,81,82,118,134,69,34,20,68,21,111,89,154,159,35,131,72,38,72,74,106,9,18,6,113,111,144,45,76,119,56,78,26,114,21,35,164,132,6,28,148,42,68,162,18,133,131,90,171,26,176,114,142,164,66,125,149,105,94,74"
dtnsim.node[17].app.size = "500,500,50,100,100,200,200,100,500,50,500,200,100,500,50,200,50,500,100,50,100,100,500,50,500,500,50,200,100,200,500,100,500,200,50,200,100,50,50,500,500,100,100,500,200,50,500,500,200,200,500,50,100,100,100,200,100,200,50,100,200,200,100,50,100,500,50,50,500,100,50,200,50,100,500,200,50,500,200,100,50,200,50,500,50,50,50,200,50,500,100,100,500,100,50,100,50,500,100,100"
        # Node 18 random traffic
dtnsim.node[18].app.enable = true
dtnsim.node[18].app.bundlesNumber = "1,1,1,1,1,1,1,1,1,1,1,1,1,1,1,1,1,1,1,1,1,1,1,1,1,1,1,1,1,1,1,1,1,1,1,1,1,1,1,1,1,1,1,1,1,1,1,1,1,1,1,1,1,1,1,1,1,1,1,1,1,1,1,1,1,1,1,1,1,1,1,1,1,1,1,1,1,1,1,1,1,1,1,1,1,1,1,1,1,1,1,1,1,1,1,1,1,1,1,1"
dtnsim.node[18].app.start = "19,18,1,9,17,12,17,1,10,8,1,4,12,19,7,8,1,20,14,8,15,7,8,5,17,14,18,6,17,13,17,3,2,9,9,8,8,12,6,12,10,1,2,3,3,1,7,2,9,9,12,4,10,12,5,18,17,14,20,1,13,14,11,18,11,7,6,17,17,12,8,16,16,11,3,17,10,4,18,3,12,9,16,1,6,9,17,18,4,7,5,15,19,16,12,19,11,10,15,16"
dtnsim.node[18].app.destinationEid = "2,161,131,8,66,32,106,85,94,98,58,64,80,45,161,145,17,76,156,46,45,163,167,29,7,73,48,3,76,52,179,8,81,115,163,66,26,137,82,106,45,97,175,36,113,21,90,127,33,147,133,27,54,19,135,34,13,161,141,33,19,74,31,165,2,83,123,77,62,125,56,137,114,92,6,164,4,170,135,155,120,128,171,49,21,58,108,81,88,166,176,175,93,67,61,170,56,85,135,75"
dtnsim.node[18].app.size = "100,200,200,100,100,500,100,50,50,50,50,500,500,500,500,200,50,500,500,200,100,50,200,500,500,200,500,100,200,500,500,200,500,500,500,100,500,100,500,500,200,50,500,500,100,200,200,50,50,200,50,100,500,200,500,50,200,200,200,200,200,100,100,50,500,200,100,50,200,100,100,50,50,100,200,50,100,500,100,500,100,100,50,100,200,500,200,500,50,500,200,50,100,100,500,100,100,50,200,50"
        # Node 19 random traffic
dtnsim.node[19].app.enable = true
dtnsim.node[19].app.bundlesNumber = "1,1,1,1,1,1,1,1,1,1,1,1,1,1,1,1,1,1,1,1,1,1,1,1,1,1,1,1,1,1,1,1,1,1,1,1,1,1,1,1,1,1,1,1,1,1,1,1,1,1,1,1,1,1,1,1,1,1,1,1,1,1,1,1,1,1,1,1,1,1,1,1,1,1,1,1,1,1,1,1,1,1,1,1,1,1,1,1,1,1,1,1,1,1,1,1,1,1,1,1"
dtnsim.node[19].app.start = "2,6,1,19,4,5,12,17,6,10,20,13,17,8,12,13,7,4,13,6,19,8,8,6,16,3,9,20,17,17,7,3,11,20,16,6,6,15,9,5,15,2,17,7,19,11,17,11,11,7,20,18,1,4,18,19,5,12,16,12,3,12,15,18,8,6,13,18,4,19,4,9,10,15,9,9,9,17,7,19,11,10,1,20,11,17,19,12,15,1,14,13,8,8,1,20,12,4,3,12"
dtnsim.node[19].app.destinationEid = "81,111,45,145,153,106,168,152,115,168,45,47,176,140,163,13,31,32,103,131,68,34,152,168,120,103,14,73,36,172,71,163,162,5,95,67,167,150,148,16,44,104,131,121,128,2,85,89,34,106,145,93,151,98,8,79,62,115,81,59,104,76,2,114,138,98,1,151,30,34,137,77,14,52,74,132,97,180,84,101,160,127,144,29,8,106,78,166,84,98,14,95,96,172,36,3,135,79,141,122"
dtnsim.node[19].app.size = "100,100,500,50,50,50,200,100,500,100,500,50,200,100,100,500,200,50,500,100,50,50,50,500,100,50,500,200,200,500,500,500,500,100,100,100,100,200,200,100,100,50,100,100,500,50,500,500,200,500,500,500,100,100,100,50,500,500,500,100,100,500,500,100,500,50,200,500,500,200,100,200,500,200,100,100,50,200,100,500,200,50,50,200,500,200,500,100,500,50,100,500,100,100,50,200,500,50,200,200"
        # Node 20 random traffic
dtnsim.node[20].app.enable = true
dtnsim.node[20].app.bundlesNumber = "1,1,1,1,1,1,1,1,1,1,1,1,1,1,1,1,1,1,1,1,1,1,1,1,1,1,1,1,1,1,1,1,1,1,1,1,1,1,1,1,1,1,1,1,1,1,1,1,1,1,1,1,1,1,1,1,1,1,1,1,1,1,1,1,1,1,1,1,1,1,1,1,1,1,1,1,1,1,1,1,1,1,1,1,1,1,1,1,1,1,1,1,1,1,1,1,1,1,1,1"
dtnsim.node[20].app.start = "19,2,3,16,2,2,9,5,3,12,14,18,3,4,11,20,5,2,12,15,3,13,2,5,4,4,6,9,8,16,8,2,4,4,20,15,16,2,9,15,3,13,10,20,11,18,16,4,13,15,1,3,20,8,8,17,17,8,19,8,20,7,9,10,12,12,9,15,20,4,2,6,10,13,17,7,7,1,6,12,17,16,13,11,5,5,2,18,18,9,8,3,16,19,12,20,20,16,11,2"
dtnsim.node[20].app.destinationEid = "108,129,44,39,87,78,64,56,118,152,94,53,129,78,18,33,54,173,24,54,73,51,27,74,75,26,144,129,62,174,88,99,127,168,102,98,129,38,77,70,38,133,46,77,43,33,132,131,154,170,94,38,73,152,118,9,36,57,150,174,100,98,123,84,112,69,154,123,94,100,177,173,65,169,45,116,63,105,121,106,10,63,110,72,109,9,101,38,22,4,13,152,92,166,135,128,128,109,93,102"
dtnsim.node[20].app.size = "100,200,200,100,100,50,50,200,50,50,200,100,100,50,100,100,50,200,100,100,200,50,500,100,100,100,100,200,100,500,50,50,200,500,100,50,100,50,200,500,50,100,500,100,200,200,500,100,500,100,200,500,500,200,100,200,200,500,200,500,50,50,200,100,100,100,200,50,50,200,200,200,50,100,50,100,50,50,200,500,50,500,200,200,50,500,100,200,200,100,500,100,50,50,50,100,200,500,200,100"
        # Node 21 random traffic
dtnsim.node[21].app.enable = true
dtnsim.node[21].app.bundlesNumber = "1,1,1,1,1,1,1,1,1,1,1,1,1,1,1,1,1,1,1,1,1,1,1,1,1,1,1,1,1,1,1,1,1,1,1,1,1,1,1,1,1,1,1,1,1,1,1,1,1,1,1,1,1,1,1,1,1,1,1,1,1,1,1,1,1,1,1,1,1,1,1,1,1,1,1,1,1,1,1,1,1,1,1,1,1,1,1,1,1,1,1,1,1,1,1,1,1,1,1,1"
dtnsim.node[21].app.start = "14,10,2,17,4,20,18,10,12,14,7,10,8,13,6,12,1,3,18,14,11,10,9,13,13,17,19,13,3,14,9,10,3,10,5,19,12,11,19,1,19,12,3,13,11,8,5,3,14,6,13,15,13,6,5,13,12,20,4,13,11,9,14,4,8,6,4,18,17,13,18,16,16,13,13,15,7,2,10,5,12,20,9,4,20,20,15,1,20,8,1,1,16,8,17,10,10,7,20,15"
dtnsim.node[21].app.destinationEid = "78,41,169,164,77,89,70,46,19,67,96,64,94,154,134,17,63,153,52,133,4,62,30,49,60,106,96,156,109,151,85,53,38,159,18,120,131,22,107,24,113,125,143,29,63,35,32,179,155,75,83,157,88,177,59,78,157,139,163,60,104,85,144,166,158,111,113,105,67,120,123,5,9,137,167,120,121,39,46,169,45,103,140,84,171,60,92,33,52,106,44,16,173,39,26,149,45,113,146,126"
dtnsim.node[21].app.size = "50,100,200,100,100,100,50,50,200,50,50,100,50,200,50,100,500,50,50,50,200,100,200,200,50,200,500,500,100,200,50,100,500,500,500,500,50,100,50,50,50,200,100,100,500,100,500,500,200,100,100,100,100,200,200,500,200,500,200,100,500,500,50,200,500,50,50,100,50,200,100,200,200,500,200,200,100,50,50,500,200,500,50,100,50,50,50,500,200,100,200,100,200,100,200,50,200,500,50,500"
        # Node 22 random traffic
dtnsim.node[22].app.enable = true
dtnsim.node[22].app.bundlesNumber = "1,1,1,1,1,1,1,1,1,1,1,1,1,1,1,1,1,1,1,1,1,1,1,1,1,1,1,1,1,1,1,1,1,1,1,1,1,1,1,1,1,1,1,1,1,1,1,1,1,1,1,1,1,1,1,1,1,1,1,1,1,1,1,1,1,1,1,1,1,1,1,1,1,1,1,1,1,1,1,1,1,1,1,1,1,1,1,1,1,1,1,1,1,1,1,1,1,1,1,1"