[General]
network = src.dtnsim										
repeat = 1
allow-object-stealing-on-deletion = true

# Simulation end time
sim-time-limit = 84600s

# Nodes quantity (identifiers (EiDs) matches their index, EiD=0 is ignored)			
dtnsim.nodesNumber = 360
dtnsim.node[*].icon = "satellite"

# Nodes's failure rates
dtnsim.node[*].fault.enable = true
dtnsim.node[*].fault.meanTTF = 90s
dtnsim.node[*].fault.meanTTR = 10s

# Mobility
dtnsim.node[*].hasMobility = true
dtnsim.node[*].norad.satIndex = parentIndex()
dtnsim.node[*].norad.satName = "sat"
**.updateInterval = 20s
**.numOfSats = 360
**.satPerPlane = 18
**.altitude = 540
**.planes = 20
**.phaseOffset = 11

dtnsim.node[*].dtn.routing = "antop"
dtnsim.node[*].dtn.printRoutingDebug = true

# --- Random Traffic Configuration ---
# Node 1 random traffic
dtnsim.node[1].app.enable = true
dtnsim.node[1].app.bundlesNumber = "23,20,8,11,24,14"
dtnsim.node[1].app.start = "26,6,50,44,74,71"
dtnsim.node[1].app.destinationEid = "31,2,274,298,262,189"
dtnsim.node[1].app.size = "50,100,500,100,200,100"
# Node 2 random traffic
dtnsim.node[2].app.enable = true
dtnsim.node[2].app.bundlesNumber = "16,8,17,22,3,9,11,13,1"
dtnsim.node[2].app.start = "57,89,72,96,89,4,50,18,91"
dtnsim.node[2].app.destinationEid = "250,168,215,62,214,265,99,255,234"
dtnsim.node[2].app.size = "200,500,200,500,500,100,50,100,50"
# Node 3 random traffic
dtnsim.node[3].app.enable = true
dtnsim.node[3].app.bundlesNumber = "19,14,21,16,21,7,1,1"
dtnsim.node[3].app.start = "94,86,11,20,70,23,4,100"
dtnsim.node[3].app.destinationEid = "88,202,35,268,93,44,20,186"
dtnsim.node[3].app.size = "200,500,500,50,100,100,100,100"
# Node 4 random traffic
dtnsim.node[4].app.enable = true
dtnsim.node[4].app.bundlesNumber = "11,13,1,17,22,25,6,5"
dtnsim.node[4].app.start = "79,97,44,31,23,21,86,84"
dtnsim.node[4].app.destinationEid = "293,77,179,122,158,320,9,235"
dtnsim.node[4].app.size = "50,100,50,200,100,100,200,200"
# Node 5 random traffic
dtnsim.node[5].app.enable = true
dtnsim.node[5].app.bundlesNumber = "13,8,15,5,9,25,4,11,5,4,1"
dtnsim.node[5].app.start = "83,28,80,3,23,26,53,88,17,91,11"
dtnsim.node[5].app.destinationEid = "62,101,127,76,196,117,330,193,3,7,283"
dtnsim.node[5].app.size = "200,50,500,50,100,50,200,200,200,100,100"
# Node 6 random traffic
dtnsim.node[6].app.enable = true
dtnsim.node[6].app.bundlesNumber = "4,10,18,21,15,20,1,8,1,2"
dtnsim.node[6].app.start = "85,35,12,21,71,90,30,1,81,77"
dtnsim.node[6].app.destinationEid = "308,188,253,27,9,81,261,154,26,111"
dtnsim.node[6].app.size = "50,500,500,500,50,50,50,100,200,500"
# Node 7 random traffic
dtnsim.node[7].app.enable = true
dtnsim.node[7].app.bundlesNumber = "5,25,16,6,5,8,2,22,2,5,1,1,1,1"
dtnsim.node[7].app.start = "15,18,46,9,95,82,86,71,3,31,28,98,96,86"
dtnsim.node[7].app.destinationEid = "355,314,351,131,339,350,196,327,221,220,308,217,275,112"
dtnsim.node[7].app.size = "500,100,500,200,50,500,200,50,500,200,50,200,500,200"
# Node 8 random traffic
dtnsim.node[8].app.enable = true
dtnsim.node[8].app.bundlesNumber = "18,2,14,6,24,24,2,5,1,3,1"
dtnsim.node[8].app.start = "96,65,41,35,55,42,98,47,97,8,28"
dtnsim.node[8].app.destinationEid = "315,64,134,130,80,297,344,18,218,218,285"
dtnsim.node[8].app.size = "50,500,200,50,200,100,500,100,50,500,200"
# Node 9 random traffic
dtnsim.node[9].app.enable = true
dtnsim.node[9].app.bundlesNumber = "22,5,19,16,14,23,1"
dtnsim.node[9].app.start = "1,100,80,6,35,87,26"
dtnsim.node[9].app.destinationEid = "154,157,65,181,296,252,52"
dtnsim.node[9].app.size = "100,200,100,200,50,200,500"
# Node 10 random traffic
dtnsim.node[10].app.enable = true
dtnsim.node[10].app.bundlesNumber = "14,12,25,22,2,17,2,6"
dtnsim.node[10].app.start = "52,4,53,81,49,99,18,7"
dtnsim.node[10].app.destinationEid = "177,207,100,313,1,350,144,279"
dtnsim.node[10].app.size = "500,500,50,50,100,50,200,200"
# Node 11 random traffic
dtnsim.node[11].app.enable = true
dtnsim.node[11].app.bundlesNumber = "2,17,14,23,23,20,1"
dtnsim.node[11].app.start = "35,38,71,100,4,98,89"
dtnsim.node[11].app.destinationEid = "147,212,353,334,77,177,19"
dtnsim.node[11].app.size = "50,100,100,500,50,500,100"
# Node 12 random traffic
dtnsim.node[12].app.enable = true
dtnsim.node[12].app.bundlesNumber = "19,20,6,13,1,6,4,21,6,1,1,1,1"
dtnsim.node[12].app.start = "94,98,39,48,96,62,59,64,37,99,26,94,33"
dtnsim.node[12].app.destinationEid = "349,145,327,233,257,134,170,163,106,90,69,251,29"
dtnsim.node[12].app.size = "500,500,200,500,50,500,500,100,500,100,100,100,50"
# Node 13 random traffic
dtnsim.node[13].app.enable = true
dtnsim.node[13].app.bundlesNumber = "20,8,16,19,13,4,20"
dtnsim.node[13].app.start = "44,32,33,74,33,29,51"
dtnsim.node[13].app.destinationEid = "104,341,201,324,85,277,212"
dtnsim.node[13].app.size = "100,100,50,50,500,500,100"
# Node 14 random traffic
dtnsim.node[14].app.enable = true
dtnsim.node[14].app.bundlesNumber = "6,3,21,8,19,25,16,2"
dtnsim.node[14].app.start = "71,31,28,56,68,21,53,25"
dtnsim.node[14].app.destinationEid = "324,187,274,267,144,319,346,339"
dtnsim.node[14].app.size = "50,500,100,100,200,500,100,50"
# Node 15 random traffic
dtnsim.node[15].app.enable = true
dtnsim.node[15].app.bundlesNumber = "15,10,25,19,20,11"
dtnsim.node[15].app.start = "9,66,22,47,18,29"
dtnsim.node[15].app.destinationEid = "198,199,239,325,209,269"
dtnsim.node[15].app.size = "50,500,50,200,200,50"
# Node 16 random traffic
dtnsim.node[16].app.enable = true
dtnsim.node[16].app.bundlesNumber = "2,13,23,4,12,4,13,10,18,1"
dtnsim.node[16].app.start = "3,15,64,82,62,12,81,8,1,86"
dtnsim.node[16].app.destinationEid = "274,193,317,349,253,110,359,179,242,240"
dtnsim.node[16].app.size = "200,200,100,200,200,50,200,500,500,500"
# Node 17 random traffic
dtnsim.node[17].app.enable = true
dtnsim.node[17].app.bundlesNumber = "7,5,14,16,18,14,18,3,4,1"
dtnsim.node[17].app.start = "25,76,38,2,12,71,75,41,53,5"
dtnsim.node[17].app.destinationEid = "324,137,314,137,337,119,174,130,192,322"
dtnsim.node[17].app.size = "100,500,100,50,50,200,100,100,500,100"
# Node 18 random traffic
dtnsim.node[18].app.enable = true
dtnsim.node[18].app.bundlesNumber = "4,8,16,3,16,23,4,24,1,1"
dtnsim.node[18].app.start = "84,56,20,95,38,100,45,75,70,93"
dtnsim.node[18].app.destinationEid = "272,231,21,260,330,84,344,138,318,139"
dtnsim.node[18].app.size = "200,500,200,100,50,100,200,100,200,200"
# Node 19 random traffic
dtnsim.node[19].app.enable = true
dtnsim.node[19].app.bundlesNumber = "24,18,12,15,20,7,2,2"
dtnsim.node[19].app.start = "53,39,85,85,51,7,88,24"
dtnsim.node[19].app.destinationEid = "81,244,7,330,273,229,183,246"
dtnsim.node[19].app.size = "500,50,50,50,200,200,50,200"
# Node 20 random traffic
dtnsim.node[20].app.enable = true
dtnsim.node[20].app.bundlesNumber = "16,15,10,16,25,6,4,1,6,1"
dtnsim.node[20].app.start = "46,42,91,66,99,32,2,11,8,1"
dtnsim.node[20].app.destinationEid = "187,89,98,66,45,42,272,207,55,54"
dtnsim.node[20].app.size = "50,500,50,200,50,50,500,100,500,50"
# Node 21 random traffic
dtnsim.node[21].app.enable = true
dtnsim.node[21].app.bundlesNumber = "15,9,13,16,8,16,18,4,1"
dtnsim.node[21].app.start = "27,84,80,58,75,53,58,2,37"
dtnsim.node[21].app.destinationEid = "14,355,194,202,73,321,37,259,40"
dtnsim.node[21].app.size = "500,100,200,500,500,50,50,500,50"
# Node 22 random traffic
dtnsim.node[22].app.enable = true
dtnsim.node[22].app.bundlesNumber = "14,22,5,5,21,16,14,3"
dtnsim.node[22].app.start = "38,13,2,35,27,10,70,9"
dtnsim.node[22].app.destinationEid = "32,300,163,294,95,28,237,82"
dtnsim.node[22].app.size = "50,500,100,100,50,500,200,200"
# Node 23 random traffic
dtnsim.node[23].app.enable = true
dtnsim.node[23].app.bundlesNumber = "20,5,10,11,9,4,12,13,10,1,5"
dtnsim.node[23].app.start = "57,99,50,13,86,31,33,99,22,1,35"
dtnsim.node[23].app.destinationEid = "26,272,254,282,142,96,163,213,58,162,232"
dtnsim.node[23].app.size = "100,50,200,100,500,50,500,100,50,100,100"
# Node 24 random traffic
dtnsim.node[24].app.enable = true
dtnsim.node[24].app.bundlesNumber = "3,23,23,1,25,17,4,3,1"
dtnsim.node[24].app.start = "22,70,39,35,47,44,53,1,16"
dtnsim.node[24].app.destinationEid = "289,314,246,291,268,130,162,30,164"
dtnsim.node[24].app.size = "200,50,200,500,200,100,500,500,200"
# Node 25 random traffic
dtnsim.node[25].app.enable = true
dtnsim.node[25].app.bundlesNumber = "22,20,2,13,17,3,7,6,1,1,4,3,1"
dtnsim.node[25].app.start = "100,15,86,59,16,76,76,21,60,71,84,73,36"
dtnsim.node[25].app.destinationEid = "48,193,314,189,160,179,18,127,88,83,321,268,15"
dtnsim.node[25].app.size = "500,200,100,100,200,200,50,500,500,50,50,100,50"
# Node 26 random traffic
dtnsim.node[26].app.enable = true
dtnsim.node[26].app.bundlesNumber = "14,16,19,15,24,4,3,5"
dtnsim.node[26].app.start = "80,67,26,48,27,19,95,24"
dtnsim.node[26].app.destinationEid = "134,246,123,349,309,317,225,255"
dtnsim.node[26].app.size = "100,50,50,200,50,50,200,100"
# Node 27 random traffic
dtnsim.node[27].app.enable = true
dtnsim.node[27].app.bundlesNumber = "18,12,13,7,7,4,17,13,6,3"
dtnsim.node[27].app.start = "49,40,54,34,94,97,28,14,59,98"
dtnsim.node[27].app.destinationEid = "203,315,158,327,13,320,326,284,101,9"
dtnsim.node[27].app.size = "500,100,50,50,200,200,200,200,50,50"
# Node 28 random traffic
dtnsim.node[28].app.enable = true
dtnsim.node[28].app.bundlesNumber = "4,18,9,7,16,10,6,15,4,10,1"
dtnsim.node[28].app.start = "55,47,39,52,42,32,21,36,22,24,85"
dtnsim.node[28].app.destinationEid = "256,294,336,152,82,197,49,324,51,123,319"
dtnsim.node[28].app.size = "50,200,100,50,500,500,200,500,200,100,100"
# Node 29 random traffic
dtnsim.node[29].app.enable = true
dtnsim.node[29].app.bundlesNumber = "20,15,14,13,23,2,13"
dtnsim.node[29].app.start = "21,78,48,99,38,97,40"
dtnsim.node[29].app.destinationEid = "37,114,30,97,4,314,340"
dtnsim.node[29].app.size = "500,200,50,50,200,200,50"
# Node 30 random traffic
dtnsim.node[30].app.enable = true
dtnsim.node[30].app.bundlesNumber = "14,13,5,16,21,1,10,1,3,11,3,2"
dtnsim.node[30].app.start = "82,27,31,65,1,87,16,25,90,59,93,91"
dtnsim.node[30].app.destinationEid = "142,142,73,27,138,240,80,211,318,115,326,214"
dtnsim.node[30].app.size = "200,50,100,500,100,100,500,100,200,200,200,50"
# Node 31 random traffic
dtnsim.node[31].app.enable = true
dtnsim.node[31].app.bundlesNumber = "24,6,3,1,10,13,25,8,9,1"
dtnsim.node[31].app.start = "15,74,1,41,6,11,94,9,38,61"
dtnsim.node[31].app.destinationEid = "3,296,195,280,104,353,94,6,23,113"
dtnsim.node[31].app.size = "500,50,100,50,100,100,50,500,200,100"
# Node 32 random traffic
dtnsim.node[32].app.enable = true
dtnsim.node[32].app.bundlesNumber = "7,12,24,24,10,13,5,4,1"
dtnsim.node[32].app.start = "100,46,86,85,61,70,90,90,51"
dtnsim.node[32].app.destinationEid = "80,256,250,211,241,103,227,226,306"
dtnsim.node[32].app.size = "100,50,500,100,100,200,200,500,500"
# Node 33 random traffic
dtnsim.node[33].app.enable = true
dtnsim.node[33].app.bundlesNumber = "24,8,21,24,17,5,1"
dtnsim.node[33].app.start = "73,9,18,35,17,43,17"
dtnsim.node[33].app.destinationEid = "174,122,83,111,59,242,309"
dtnsim.node[33].app.size = "100,100,100,500,50,500,500"
# Node 34 random traffic
dtnsim.node[34].app.enable = true
dtnsim.node[34].app.bundlesNumber = "14,1,20,17,9,1,15,18,3,2"
dtnsim.node[34].app.start = "95,49,15,1,49,68,56,80,41,46"
dtnsim.node[34].app.destinationEid = "166,241,20,17,49,280,42,283,47,19"
dtnsim.node[34].app.size = "500,50,200,50,500,500,500,100,50,500"
# Node 35 random traffic
dtnsim.node[35].app.enable = true
dtnsim.node[35].app.bundlesNumber = "5,6,9,10,6,20,3,9,17,13,2"
dtnsim.node[35].app.start = "63,50,18,78,6,84,88,25,78,16,15"
dtnsim.node[35].app.destinationEid = "328,89,332,220,325,358,183,171,23,81,294"
dtnsim.node[35].app.size = "500,50,200,200,50,100,200,200,100,500,50"
# Node 36 random traffic
dtnsim.node[36].app.enable = true
dtnsim.node[36].app.bundlesNumber = "6,23,5,12,24,8,15,1,3,1,1,1"
dtnsim.node[36].app.start = "92,75,90,68,82,55,50,68,1,62,64,60"
dtnsim.node[36].app.destinationEid = "338,5,58,105,76,284,89,191,250,228,322,38"
dtnsim.node[36].app.size = "200,200,50,200,200,200,500,50,200,100,200,200"
# Node 37 random traffic
dtnsim.node[37].app.enable = true
dtnsim.node[37].app.bundlesNumber = "11,9,23,6,9,4,9,10,2,10,7"
dtnsim.node[37].app.start = "75,39,25,90,56,21,29,67,19,24,88"
dtnsim.node[37].app.destinationEid = "276,94,262,303,112,171,102,70,177,176,360"
dtnsim.node[37].app.size = "50,200,100,500,500,500,100,500,100,100,200"
# Node 38 random traffic
dtnsim.node[38].app.enable = true
dtnsim.node[38].app.bundlesNumber = "23,14,19,5,13,1,20,3,2"
dtnsim.node[38].app.start = "15,96,39,95,72,8,56,81,82"
dtnsim.node[38].app.destinationEid = "91,260,221,201,252,13,359,224,251"
dtnsim.node[38].app.size = "50,50,50,50,100,50,500,200,100"
# Node 39 random traffic
dtnsim.node[39].app.enable = true
dtnsim.node[39].app.bundlesNumber = "15,18,20,2,18,25,2"
dtnsim.node[39].app.start = "67,69,35,66,80,80,5"
dtnsim.node[39].app.destinationEid = "3,44,117,223,357,249,186"
dtnsim.node[39].app.size = "200,500,500,50,200,100,500"
# Node 40 random traffic
dtnsim.node[40].app.enable = true
dtnsim.node[40].app.bundlesNumber = "22,18,7,11,11,11,5,5,4,5,1"
dtnsim.node[40].app.start = "72,63,25,44,28,86,10,30,5,67,54"
dtnsim.node[40].app.destinationEid = "88,323,268,220,209,182,249,145,128,81,169"
dtnsim.node[40].app.size = "100,100,500,100,100,500,200,100,100,200,50"
# Node 41 random traffic
dtnsim.node[41].app.enable = true
dtnsim.node[41].app.bundlesNumber = "5,22,4,9,24,3,10,20,2,1"
dtnsim.node[41].app.start = "56,19,49,50,97,47,42,5,45,31"
dtnsim.node[41].app.destinationEid = "75,53,180,30,342,9,317,40,344,43"
dtnsim.node[41].app.size = "200,500,500,500,50,50,200,50,100,500"
# Node 42 random traffic
dtnsim.node[42].app.enable = true
dtnsim.node[42].app.bundlesNumber = "19,1,21,18,2,10,24,3,2"
dtnsim.node[42].app.start = "13,100,53,7,82,26,82,15,41"
dtnsim.node[42].app.destinationEid = "253,351,306,6,329,31,305,239,209"
dtnsim.node[42].app.size = "200,100,200,200,100,50,50,200,500"
# Node 43 random traffic
dtnsim.node[43].app.enable = true
dtnsim.node[43].app.bundlesNumber = "18,20,22,12,6,18,4"
dtnsim.node[43].app.start = "45,46,3,18,24,69,89"
dtnsim.node[43].app.destinationEid = "329,233,204,154,292,48,232"
dtnsim.node[43].app.size = "500,50,100,100,500,200,200"
# Node 44 random traffic
dtnsim.node[44].app.enable = true
dtnsim.node[44].app.bundlesNumber = "4,18,14,7,8,2,8,5,25,9"
dtnsim.node[44].app.start = "35,51,7,63,52,44,62,51,87,53"
dtnsim.node[44].app.destinationEid = "351,109,43,354,47,341,306,206,313,332"
dtnsim.node[44].app.size = "200,50,50,200,50,200,100,200,200,500"
# Node 45 random traffic
dtnsim.node[45].app.enable = true
dtnsim.node[45].app.bundlesNumber = "18,8,6,12,10,4,10,15,7,10"
dtnsim.node[45].app.start = "91,13,37,80,12,79,12,4,29,77"
dtnsim.node[45].app.destinationEid = "319,241,78,51,108,47,201,63,121,237"
dtnsim.node[45].app.size = "100,500,200,50,50,500,500,200,500,100"
# Node 46 random traffic
dtnsim.node[46].app.enable = true
dtnsim.node[46].app.bundlesNumber = "9,20,21,19,12,3,11,4,1"
dtnsim.node[46].app.start = "36,60,93,24,78,86,57,16,10"
dtnsim.node[46].app.destinationEid = "147,23,340,219,225,247,100,86,182"
dtnsim.node[46].app.size = "100,500,200,100,50,50,50,500,100"
# Node 47 random traffic
dtnsim.node[47].app.enable = true
dtnsim.node[47].app.bundlesNumber = "22,11,13,2,4,5,17,22,4"
dtnsim.node[47].app.start = "68,64,57,81,80,24,75,36,61"
dtnsim.node[47].app.destinationEid = "69,252,355,112,36,237,139,254,209"
dtnsim.node[47].app.size = "50,50,50,200,500,50,100,100,100"
# Node 48 random traffic
dtnsim.node[48].app.enable = true
dtnsim.node[48].app.bundlesNumber = "15,24,5,13,8,13,5,10,6,1"
dtnsim.node[48].app.start = "38,20,51,19,32,13,92,13,20,87"
dtnsim.node[48].app.destinationEid = "266,136,129,260,349,37,263,102,224,348"
dtnsim.node[48].app.size = "100,500,50,200,50,500,50,100,200,50"
# Node 49 random traffic
dtnsim.node[49].app.enable = true
dtnsim.node[49].app.bundlesNumber = "6,1,16,19,16,25,5,2,6,1,2,1"
dtnsim.node[49].app.start = "8,2,39,68,16,27,6,17,72,23,9,1"
dtnsim.node[49].app.destinationEid = "243,184,65,156,264,134,342,83,275,44,345,326"
dtnsim.node[49].app.size = "500,200,200,50,50,100,100,500,50,50,200,50"
# Node 50 random traffic
dtnsim.node[50].app.enable = true
dtnsim.node[50].app.bundlesNumber = "25,15,23,14,18,1,2,1,1"
dtnsim.node[50].app.start = "61,43,47,26,14,76,19,87,37"
dtnsim.node[50].app.destinationEid = "287,106,44,291,26,280,161,51,189"
dtnsim.node[50].app.size = "100,200,500,500,500,50,100,200,50"
# Node 51 random traffic
dtnsim.node[51].app.enable = true
dtnsim.node[51].app.bundlesNumber = "10,6,3,22,6,9,7,9,14,3,7,3,1"
dtnsim.node[51].app.start = "42,92,99,14,27,93,37,48,38,98,36,74,12"
dtnsim.node[51].app.destinationEid = "44,198,30,264,93,201,7,329,287,77,132,315,110"
dtnsim.node[51].app.size = "50,50,500,500,500,50,500,500,500,100,100,500,200"
# Node 52 random traffic
dtnsim.node[52].app.enable = true
dtnsim.node[52].app.bundlesNumber = "5,13,8,20,4,24,24,2"
dtnsim.node[52].app.start = "33,19,58,38,7,89,34,80"
dtnsim.node[52].app.destinationEid = "263,18,61,214,138,87,86,275"
dtnsim.node[52].app.size = "200,100,500,200,50,100,50,100"
# Node 53 random traffic
dtnsim.node[53].app.enable = true
dtnsim.node[53].app.bundlesNumber = "15,15,24,19,13,3,10,1"
dtnsim.node[53].app.start = "29,38,63,34,57,79,94,94"
dtnsim.node[53].app.destinationEid = "277,254,263,93,99,168,250,232"
dtnsim.node[53].app.size = "200,500,500,100,50,500,500,50"
# Node 54 random traffic
dtnsim.node[54].app.enable = true
dtnsim.node[54].app.bundlesNumber = "5,17,19,15,23,19,2"
dtnsim.node[54].app.start = "31,5,21,34,27,12,58"
dtnsim.node[54].app.destinationEid = "68,169,68,148,101,169,218"
dtnsim.node[54].app.size = "100,500,100,100,100,50,50"
# Node 55 random traffic
dtnsim.node[55].app.enable = true
dtnsim.node[55].app.bundlesNumber = "3,21,20,23,20,6,1,4,1,1"
dtnsim.node[55].app.start = "63,78,93,43,59,14,35,27,43,35"
dtnsim.node[55].app.destinationEid = "328,224,314,165,33,329,150,152,40,298"
dtnsim.node[55].app.size = "100,500,500,100,50,500,100,50,200,500"
# Node 56 random traffic
dtnsim.node[56].app.enable = true
dtnsim.node[56].app.bundlesNumber = "21,17,8,11,7,17,1,17,1"
dtnsim.node[56].app.start = "96,97,44,52,3,38,23,63,18"
dtnsim.node[56].app.destinationEid = "50,253,8,354,177,178,73,71,81"
dtnsim.node[56].app.size = "500,100,50,100,50,200,200,50,500"
# Node 57 random traffic
dtnsim.node[57].app.enable = true
dtnsim.node[57].app.bundlesNumber = "9,6,20,7,21,6,6,21,4"
dtnsim.node[57].app.start = "94,19,44,10,73,58,9,14,43"
dtnsim.node[57].app.destinationEid = "334,108,25,5,272,263,243,296,196"
dtnsim.node[57].app.size = "100,50,50,50,100,100,500,100,200"
# Node 58 random traffic
dtnsim.node[58].app.enable = true
dtnsim.node[58].app.bundlesNumber = "24,11,24,24,9,7,1"
dtnsim.node[58].app.start = "2,77,53,34,99,96,25"
dtnsim.node[58].app.destinationEid = "19,147,348,17,95,349,256"
dtnsim.node[58].app.size = "100,500,200,200,50,50,100"
# Node 59 random traffic
dtnsim.node[59].app.enable = true
dtnsim.node[59].app.bundlesNumber = "3,17,22,7,3,6,11,13,12,5,1"
dtnsim.node[59].app.start = "72,100,21,8,10,59,44,17,17,94,12"
dtnsim.node[59].app.destinationEid = "273,189,187,304,353,338,143,347,184,302,127"
dtnsim.node[59].app.size = "200,200,100,500,200,50,50,500,500,500,500"
# Node 60 random traffic
dtnsim.node[60].app.enable = true
dtnsim.node[60].app.bundlesNumber = "12,4,23,24,7,10,10,10"
dtnsim.node[60].app.start = "6,21,1,95,6,60,23,69"
dtnsim.node[60].app.destinationEid = "53,137,121,339,23,166,358,261"
dtnsim.node[60].app.size = "50,200,100,50,200,200,500,500"
# Node 61 random traffic
dtnsim.node[61].app.enable = true
dtnsim.node[61].app.bundlesNumber = "8,14,15,7,21,3,11,10,9,2"
dtnsim.node[61].app.start = "1,48,18,10,14,98,2,92,24,6"
dtnsim.node[61].app.destinationEid = "91,38,71,300,332,141,194,355,52,262"
dtnsim.node[61].app.size = "100,50,500,50,200,500,50,100,50,200"
# Node 62 random traffic
dtnsim.node[62].app.enable = true
dtnsim.node[62].app.bundlesNumber = "17,10,1,13,19,23,10,2,2,2,1"
dtnsim.node[62].app.start = "63,77,30,45,25,75,60,12,26,96,94"
dtnsim.node[62].app.destinationEid = "306,69,101,149,82,156,318,316,209,106,88"
dtnsim.node[62].app.size = "100,100,500,500,500,200,500,200,50,200,100"
# Node 63 random traffic
dtnsim.node[63].app.enable = true
dtnsim.node[63].app.bundlesNumber = "14,21,8,8,4,16,8,9,8,4"
dtnsim.node[63].app.start = "69,100,25,74,33,70,25,9,51,93"
dtnsim.node[63].app.destinationEid = "68,336,272,286,222,177,168,72,35,175"
dtnsim.node[63].app.size = "50,200,500,500,200,200,200,200,500,500"
# Node 64 random traffic
dtnsim.node[64].app.enable = true
dtnsim.node[64].app.bundlesNumber = "24,21,6,4,1,20,17,2,3,1,1"
dtnsim.node[64].app.start = "87,29,1,58,45,28,3,21,39,33,30"
dtnsim.node[64].app.destinationEid = "120,79,243,265,187,266,303,186,253,319,282"
dtnsim.node[64].app.size = "100,100,200,50,50,100,50,200,50,100,500"
# Node 65 random traffic
dtnsim.node[65].app.enable = true
dtnsim.node[65].app.bundlesNumber = "10,16,23,5,11,1,10,14,1,6,2,1"
dtnsim.node[65].app.start = "33,95,75,6,18,78,22,22,59,26,31,42"
dtnsim.node[65].app.destinationEid = "338,188,339,224,8,140,127,269,321,180,64,336"
dtnsim.node[65].app.size = "500,200,200,50,50,200,50,50,50,50,50,100"
# Node 66 random traffic
dtnsim.node[66].app.enable = true
dtnsim.node[66].app.bundlesNumber = "4,9,21,16,12,5,8,18,1,3,2,1"
dtnsim.node[66].app.start = "81,91,69,22,62,20,11,33,57,90,16,36"
dtnsim.node[66].app.destinationEid = "37,145,323,238,40,289,222,189,224,247,253,99"
dtnsim.node[66].app.size = "100,100,50,100,50,200,50,500,100,50,100,100"
# Node 67 random traffic
dtnsim.node[67].app.enable = true
dtnsim.node[67].app.bundlesNumber = "8,9,21,6,23,23,2,8"
dtnsim.node[67].app.start = "13,83,73,47,91,21,2,70"
dtnsim.node[67].app.destinationEid = "267,201,232,245,216,355,57,306"
dtnsim.node[67].app.size = "50,50,200,200,100,200,100,500"
# Node 68 random traffic
dtnsim.node[68].app.enable = true
dtnsim.node[68].app.bundlesNumber = "25,2,6,4,18,13,24,2,3,2,1"
dtnsim.node[68].app.start = "34,24,45,20,11,38,45,6,29,93,24"
dtnsim.node[68].app.destinationEid = "105,340,230,283,249,258,230,8,286,340,207"
dtnsim.node[68].app.size = "50,500,50,50,500,500,500,50,500,500,200"
# Node 69 random traffic
dtnsim.node[69].app.enable = true
dtnsim.node[69].app.bundlesNumber = "2,5,20,2,24,1,13,22,10,1"
dtnsim.node[69].app.start = "20,8,70,59,43,26,4,78,62,7"
dtnsim.node[69].app.destinationEid = "108,220,61,150,283,177,101,332,18,248"
dtnsim.node[69].app.size = "500,50,100,200,200,50,500,200,500,100"
# Node 70 random traffic
dtnsim.node[70].app.enable = true
dtnsim.node[70].app.bundlesNumber = "4,18,22,18,17,10,1,7,2,1"
dtnsim.node[70].app.start = "42,86,78,94,17,76,94,23,4,56"
dtnsim.node[70].app.destinationEid = "351,45,177,229,103,318,78,207,284,170"
dtnsim.node[70].app.size = "100,100,50,50,200,50,50,200,50,50"
# Node 71 random traffic
dtnsim.node[71].app.enable = true
dtnsim.node[71].app.bundlesNumber = "22,2,14,15,11,16,4,10,2,3,1"
dtnsim.node[71].app.start = "85,23,14,95,53,33,92,89,19,83,18"
dtnsim.node[71].app.destinationEid = "94,332,35,58,28,295,7,321,117,286,321"
dtnsim.node[71].app.size = "50,200,100,50,500,50,100,200,50,200,500"
# Node 72 random traffic
dtnsim.node[72].app.enable = true
dtnsim.node[72].app.bundlesNumber = "13,25,22,4,13,13,7,1,2"
dtnsim.node[72].app.start = "95,63,63,8,97,95,62,37,33"
dtnsim.node[72].app.destinationEid = "175,183,195,264,278,119,89,224,114"
dtnsim.node[72].app.size = "200,500,100,200,500,100,100,500,200"
# Node 73 random traffic
dtnsim.node[73].app.enable = true
dtnsim.node[73].app.bundlesNumber = "20,7,25,8,22,17,1"
dtnsim.node[73].app.start = "77,81,7,31,40,78,10"
dtnsim.node[73].app.destinationEid = "360,217,214,225,86,138,218"
dtnsim.node[73].app.size = "500,50,100,100,100,500,50"
# Node 74 random traffic
dtnsim.node[74].app.enable = true
dtnsim.node[74].app.bundlesNumber = "16,15,5,18,2,25,5,3,7,2,1,1"
dtnsim.node[74].app.start = "3,85,49,31,90,37,25,28,81,7,36,68"
dtnsim.node[74].app.destinationEid = "267,204,100,257,73,185,162,334,78,270,230,91"
dtnsim.node[74].app.size = "500,500,50,50,200,200,100,50,50,500,500,50"
# Node 75 random traffic
dtnsim.node[75].app.enable = true
dtnsim.node[75].app.bundlesNumber = "6,23,20,4,16,19,3,7,2"
dtnsim.node[75].app.start = "32,3,77,32,98,73,94,39,90"
dtnsim.node[75].app.destinationEid = "146,169,193,332,213,20,304,277,318"
dtnsim.node[75].app.size = "500,100,200,100,50,100,500,200,200"
# Node 76 random traffic
dtnsim.node[76].app.enable = true
dtnsim.node[76].app.bundlesNumber = "18,25,5,2,18,2,13,4,13"
dtnsim.node[76].app.start = "95,77,32,39,62,62,5,37,76"
dtnsim.node[76].app.destinationEid = "101,298,219,262,191,93,71,90,187"
dtnsim.node[76].app.size = "200,500,100,500,200,500,500,500,200"
# Node 77 random traffic
dtnsim.node[77].app.enable = true
dtnsim.node[77].app.bundlesNumber = "21,18,18,24,4,12,1,1,1"
dtnsim.node[77].app.start = "48,23,4,34,80,43,9,77,39"
dtnsim.node[77].app.destinationEid = "276,173,320,239,114,230,177,276,288"
dtnsim.node[77].app.size = "100,50,200,50,100,500,100,500,200"
# Node 78 random traffic
dtnsim.node[78].app.enable = true
dtnsim.node[78].app.bundlesNumber = "13,2,1,25,4,10,21,2,14,3,1,2,1,1"
dtnsim.node[78].app.start = "51,63,27,86,30,51,10,67,38,40,8,46,44,99"
dtnsim.node[78].app.destinationEid = "358,262,112,319,10,168,116,213,121,40,203,298,169,31"
dtnsim.node[78].app.size = "50,200,200,500,100,50,500,500,200,200,100,200,500,100"
# Node 79 random traffic
dtnsim.node[79].app.enable = true
dtnsim.node[79].app.bundlesNumber = "7,1,11,13,10,9,13,17,14,2,2,1"
dtnsim.node[79].app.start = "33,77,24,90,60,96,63,20,84,32,85,9"
dtnsim.node[79].app.destinationEid = "226,166,128,99,156,335,326,351,72,267,229,134"
dtnsim.node[79].app.size = "500,100,100,500,100,200,50,100,200,100,500,200"
# Node 80 random traffic
dtnsim.node[80].app.enable = true
dtnsim.node[80].app.bundlesNumber = "10,3,2,1,4,25,14,5,24,12"
dtnsim.node[80].app.start = "94,63,37,19,33,96,13,75,8,26"
dtnsim.node[80].app.destinationEid = "118,202,229,11,325,8,71,186,306,215"
dtnsim.node[80].app.size = "500,200,500,50,200,100,100,200,200,500"
# Node 81 random traffic
dtnsim.node[81].app.enable = true
dtnsim.node[81].app.bundlesNumber = "14,13,7,12,21,1,15,2,6,2,1,4,1,1"
dtnsim.node[81].app.start = "39,42,27,47,20,97,64,78,75,71,44,37,22,98"
dtnsim.node[81].app.destinationEid = "225,149,148,108,112,218,121,255,249,168,51,185,32,353"
dtnsim.node[81].app.size = "50,100,200,50,100,200,200,50,500,500,200,100,500,50"
# Node 82 random traffic
dtnsim.node[82].app.enable = true
dtnsim.node[82].app.bundlesNumber = "15,4,14,22,1,7,18,12,2,3,1,1"
dtnsim.node[82].app.start = "21,51,15,69,98,34,96,62,4,8,4,52"
dtnsim.node[82].app.destinationEid = "245,326,244,258,230,297,95,332,51,134,320,13"
dtnsim.node[82].app.size = "100,100,500,50,500,100,100,100,100,200,200,500"
# Node 83 random traffic
dtnsim.node[83].app.enable = true
dtnsim.node[83].app.bundlesNumber = "4,7,21,9,21,17,9,5,7"
dtnsim.node[83].app.start = "98,54,41,49,4,26,86,19,74"
dtnsim.node[83].app.destinationEid = "196,306,131,119,107,211,149,93,128"
dtnsim.node[83].app.size = "100,50,500,500,500,200,500,50,200"
# Node 84 random traffic
dtnsim.node[84].app.enable = true
dtnsim.node[84].app.bundlesNumber = "17,6,8,17,15,10,13,14"
dtnsim.node[84].app.start = "37,83,28,90,53,62,82,66"
dtnsim.node[84].app.destinationEid = "155,173,171,269,74,145,331,102"
dtnsim.node[84].app.size = "50,50,100,50,100,100,500,100"
# Node 85 random traffic
dtnsim.node[85].app.enable = true
dtnsim.node[85].app.bundlesNumber = "15,16,9,23,23,11,3"
dtnsim.node[85].app.start = "90,96,80,40,11,6,94"
dtnsim.node[85].app.destinationEid = "89,271,174,232,299,66,172"
dtnsim.node[85].app.size = "100,100,50,50,200,50,50"
# Node 86 random traffic
dtnsim.node[86].app.enable = true
dtnsim.node[86].app.bundlesNumber = "24,18,24,25,8,1"
dtnsim.node[86].app.start = "56,2,75,72,82,24"
dtnsim.node[86].app.destinationEid = "47,221,39,101,112,124"
dtnsim.node[86].app.size = "200,200,200,500,100,500"
# Node 87 random traffic
dtnsim.node[87].app.enable = true
dtnsim.node[87].app.bundlesNumber = "9,18,15,15,18,11,8,4,1,1"
dtnsim.node[87].app.start = "15,10,88,5,35,94,79,88,84,87"
dtnsim.node[87].app.destinationEid = "140,247,220,289,130,48,298,109,22,224"
dtnsim.node[87].app.size = "500,50,100,500,200,200,200,50,200,500"
# Node 88 random traffic
dtnsim.node[88].app.enable = true
dtnsim.node[88].app.bundlesNumber = "22,21,5,11,13,7,4,6,5,4,2"
dtnsim.node[88].app.start = "16,26,31,9,100,100,6,3,20,13,13"
dtnsim.node[88].app.destinationEid = "72,264,103,230,237,5,146,282,173,274,278"
dtnsim.node[88].app.size = "100,100,200,200,500,100,50,50,500,200,500"
# Node 89 random traffic
dtnsim.node[89].app.enable = true
dtnsim.node[89].app.bundlesNumber = "3,15,8,2,17,4,22,12,2,15"
dtnsim.node[89].app.start = "77,58,38,86,18,31,54,49,44,48"
dtnsim.node[89].app.destinationEid = "344,346,271,126,156,93,311,291,106,112"
dtnsim.node[89].app.size = "500,50,100,50,100,200,100,50,100,50"
# Node 90 random traffic
dtnsim.node[90].app.enable = true
dtnsim.node[90].app.bundlesNumber = "23,20,24,21,5,7"
dtnsim.node[90].app.start = "88,68,94,31,64,83"
dtnsim.node[90].app.destinationEid = "341,125,28,328,107,324"
dtnsim.node[90].app.size = "50,100,200,200,100,500"
# Node 91 random traffic
dtnsim.node[91].app.enable = true
dtnsim.node[91].app.bundlesNumber = "7,11,9,9,17,9,21,14,1,1,1"
dtnsim.node[91].app.start = "70,90,75,40,76,82,48,98,92,43,37"
dtnsim.node[91].app.destinationEid = "173,227,117,267,305,116,263,210,306,263,157"
dtnsim.node[91].app.size = "100,200,50,50,500,200,200,50,50,50,200"
# Node 92 random traffic
dtnsim.node[92].app.enable = true
dtnsim.node[92].app.bundlesNumber = "16,13,2,25,25,4,10,5"
dtnsim.node[92].app.start = "64,70,68,91,94,42,84,3"
dtnsim.node[92].app.destinationEid = "34,27,251,179,156,281,196,263"
dtnsim.node[92].app.size = "50,100,50,500,50,500,500,50"