[General]
network = src.dtnsim										
repeat = 1
allow-object-stealing-on-deletion = true

# Simulation end time
sim-time-limit = 84600s

# Nodes quantity (identifiers (EiDs) matches their index, EiD=0 is ignored)			
dtnsim.nodesNumber = 360
dtnsim.node[*].icon = "satellite"

# Nodes's failure rates
dtnsim.node[*].fault.enable = false
dtnsim.node[*].fault.meanTTF = 0s
dtnsim.node[*].fault.meanTTR = 0s

# Mobility
dtnsim.node[*].hasMobility = true
dtnsim.node[*].norad.satIndex = parentIndex()
dtnsim.node[*].norad.satName = "sat"
**.updateInterval = 20s
**.numOfSats = 360
**.satPerPlane = 18
**.altitude = 540
**.planes = 20
**.phaseOffset = 11

dtnsim.node[*].dtn.routing = "antop"
dtnsim.node[*].dtn.printRoutingDebug = true

# --- Random Traffic Configuration ---
# Node 1 random conversational traffic
dtnsim.node[1].app.enable = true
dtnsim.node[1].app.bundlesNumber = "2,4,4,5,4,1,2,2,5,2,3,5,3,1,2,2,2,1,3,5,3,5,3,1,2,4,5,2,2,1,5,5,1,4,1,5,2,1,2,4,1,4,4,5,3,2,5,2,4,4,4,4,3,2,3,4,5,4,5,5,1,5,1,2,5,1,2,1,2,2,3,3,2,3,3,3,5,5,3,3,5,5,4,2,5,1,4,2,2,5,1,3,2,5,5,5,2,2,2,3"
dtnsim.node[1].app.start = "4,97,76,13,59,42,70,94,26,9,23,72,96,8,76,72,65,48,86,63,74,91,89,50,22,44,68,5,78,88,6,45,79,18,47,95,7,27,41,55,58,39,39,79,41,25,79,20,60,74,54,73,31,48,2,25,64,41,35,59,45,9,72,33,42,1,15,85,64,47,84,58,83,52,74,69,5,40,93,48,47,85,97,11,31,25,34,59,98,3,32,29,97,83,65,24,52,11,40,9"
dtnsim.node[1].app.destinationEid = "2,2,2,2,2,2,2,2,2,2,2,2,2,2,2,2,2,2,2,2,2,2,2,2,2,2,2,2,2,2,2,2,2,2,2,2,2,2,2,2,2,2,2,2,2,2,2,2,2,2,2,2,2,2,2,2,2,2,2,2,2,2,2,2,2,2,2,2,2,2,2,2,2,2,2,2,2,2,2,2,2,2,2,2,2,2,2,2,2,2,2,2,2,2,2,2,2,2,2,2"
dtnsim.node[1].app.size = "500,200,50,100,100,50,500,500,500,100,50,500,50,100,200,500,50,50,200,200,500,200,200,200,100,50,50,100,200,500,500,500,500,500,500,50,500,50,50,500,100,500,50,100,500,100,500,200,200,200,500,500,100,100,100,500,100,100,500,500,50,50,100,50,100,50,200,100,50,50,100,200,500,500,200,200,200,100,500,50,50,500,100,500,500,50,500,500,200,500,200,200,100,500,50,500,50,100,100,500"
# Node 2 random conversational traffic
dtnsim.node[2].app.enable = true
dtnsim.node[2].app.bundlesNumber = "1,2,2,2,1,1,1,4,4,1,2,2,4,2,4,1,1,5,5,3,1,2,2,2,3,5,5,4,3,1,5,1,2,4,3,3,4,3,4,5,5,1,3,3,3,1,2,3,2,2,2,2,4,5,1,3,3,2,5,3,1,1,4,3,4,1,3,3,2,2,2,1,2,2,2,3,4,1,4,4,2,4,3,5,3,5,4,1,5,4,4,4,3,5,3,3,5,1,3,5"
dtnsim.node[2].app.start = "10,82,98,27,27,80,100,74,68,54,88,84,93,30,46,72,96,15,52,85,28,96,17,35,49,59,47,80,47,30,80,23,61,83,82,33,7,29,70,44,46,79,37,7,94,60,76,74,6,49,95,49,100,19,36,28,67,100,40,30,71,34,53,43,11,78,71,96,51,81,52,76,30,34,12,91,10,35,18,28,23,10,28,39,52,69,37,94,4,10,9,93,84,33,58,58,49,57,44,4"
dtnsim.node[2].app.destinationEid = "1,1,1,1,1,1,1,1,1,1,1,1,1,1,1,1,1,1,1,1,1,1,1,1,1,1,1,1,1,1,1,1,1,1,1,1,1,1,1,1,1,1,1,1,1,1,1,1,1,1,1,1,1,1,1,1,1,1,1,1,1,1,1,1,1,3,3,3,3,3,3,3,3,3,3,3,3,3,3,3,3,3,3,3,3,3,3,3,3,3,3,3,3,3,3,3,3,3,3,3"
dtnsim.node[2].app.size = "200,500,100,500,500,200,200,200,100,500,50,50,50,500,200,500,50,50,100,200,500,50,50,500,50,200,200,50,100,200,50,50,50,200,200,200,100,100,50,50,100,50,100,200,50,50,50,100,50,500,500,100,500,200,500,200,100,50,100,50,200,500,200,200,100,200,500,100,500,50,200,200,200,200,100,200,500,50,200,500,500,500,100,500,50,500,100,500,200,50,500,50,100,50,50,50,500,500,500,500"
# Node 3 random conversational traffic
dtnsim.node[3].app.enable = true
dtnsim.node[3].app.bundlesNumber = "5,1,1,2,3,4,5,2,4,3,2,5,1,4,1,5,3,3,3,3,2,4,3,4,4,5,5,3,4,5,5,4,1,4,2,5,4,4,2,4,3,4,2,5,4,1,1,4,2,3,2,4,4,4,5,5,4,4,2,4,5,4,2,5,5,5,1,1,5,5,4,4,2,1,3,3,2,5,2,1,2,5,3,4,3,3,1,5,5,4,5,5,2,5,5,3,2,3,5,4"
dtnsim.node[3].app.start = "79,100,85,44,97,15,42,31,25,36,44,60,77,39,100,8,16,96,37,65,64,49,23,15,84,70,86,26,98,77,84,66,94,90,19,90,85,87,67,72,85,25,96,48,95,91,67,95,46,63,16,72,63,43,28,5,24,59,58,89,61,1,55,29,71,56,8,91,3,10,29,99,67,57,53,82,85,98,40,88,44,29,61,58,26,23,63,79,17,61,27,18,30,64,57,61,48,45,77,2"
dtnsim.node[3].app.destinationEid = "2,2,2,2,2,2,2,2,2,2,2,2,2,2,2,2,2,2,2,2,2,2,4,4,4,4,4,4,4,4,4,4,4,4,4,4,4,4,4,4,4,4,4,4,4,4,4,4,4,4,4,4,4,4,4,4,4,4,4,4,4,4,4,4,4,4,4,4,4,4,4,4,4,4,4,4,4,4,4,4,4,4,4,4,4,4,4,4,4,4,4,4,4,4,4,4,4,4,4,4"
dtnsim.node[3].app.size = "100,100,50,500,200,200,50,500,500,500,100,500,100,200,500,50,200,50,50,200,200,500,100,50,500,200,500,200,50,50,50,500,500,50,200,100,50,100,200,200,50,500,500,200,50,50,500,100,100,100,100,100,100,500,50,200,500,200,100,200,50,500,200,100,50,50,500,100,200,50,50,50,100,500,50,100,50,100,50,50,200,50,500,200,200,200,50,50,50,500,500,50,200,200,100,100,500,100,500,50"
# Node 4 random conversational traffic
dtnsim.node[4].app.enable = true
dtnsim.node[4].app.bundlesNumber = "1,2,2,4,4,3,3,5,3,1,2,2,2,2,2,1,1,1,5,3,4,3,2,4,1,1,4,5,5,4,4,4,1,3,4,5,4,2,4,1,3,1,2,3,4,2,2,5,5,3,3,5,3,4,1,5,3,2,2,2,1,5,3,5,1,2,5,4,5,2,1,1,5,1,5,2,3,1,5,4,3,4,4,5,1,3,2,4,5,3,5,3,4,2,1,3,5,2,3,4"
dtnsim.node[4].app.start = "29,22,92,99,79,70,96,92,93,91,71,75,94,27,94,99,54,68,71,35,29,66,67,90,71,6,60,75,60,15,8,13,77,83,99,94,71,29,26,65,83,21,66,35,70,55,52,5,86,85,48,56,64,64,80,11,3,19,28,97,91,75,58,17,12,71,93,1,64,51,20,54,61,72,43,93,15,60,21,90,48,7,27,65,26,98,65,8,19,66,20,53,42,68,66,71,30,43,62,96"
dtnsim.node[4].app.destinationEid = "3,3,3,3,3,3,3,3,3,3,3,3,3,3,3,3,3,3,3,3,3,3,3,3,3,3,3,3,3,3,3,3,3,3,3,3,3,3,3,3,3,3,3,3,3,3,3,3,5,5,5,5,5,5,5,5,5,5,5,5,5,5,5,5,5,5,5,5,5,5,5,5,5,5,5,5,5,5,5,5,5,5,5,5,5,5,5,5,5,5,5,5,5,5,5,5,5,5,5,5"
dtnsim.node[4].app.size = "200,500,100,500,100,200,100,500,50,50,500,500,200,100,200,50,500,50,500,50,200,50,200,500,50,100,500,200,50,50,50,100,200,100,100,100,100,500,50,500,50,200,200,100,100,200,50,50,200,50,500,100,100,50,200,200,200,100,200,500,200,200,100,100,50,50,200,100,100,200,50,200,50,100,500,50,200,50,50,200,50,100,100,100,200,500,200,500,200,200,100,500,50,200,100,50,500,500,200,100"
# Node 5 random conversational traffic
dtnsim.node[5].app.enable = true
dtnsim.node[5].app.bundlesNumber = "4,4,5,1,2,3,2,3,2,1,4,1,1,5,1,1,3,2,4,2,4,3,5,4,2,1,1,5,3,2,3,5,1,4,1,2,3,5,1,1,3,4,2,1,2,1,3,2,3,4,5,3,1,2,4,4,5,5,5,5,1,4,4,3,2,5,2,3,5,3,1,2,2,2,4,1,1,2,1,2,3,5,2,4,4,1,3,3,1,1,3,5,3,5,1,4,4,1,1,1"
dtnsim.node[5].app.start = "94,63,71,65,88,31,100,82,18,94,9,72,57,64,94,67,52,66,31,70,26,72,49,72,68,80,31,51,72,87,87,80,83,95,22,44,95,42,99,74,75,90,33,86,37,84,65,87,27,30,3,80,92,13,95,58,2,52,52,38,12,40,8,37,31,38,34,38,91,62,43,89,4,49,30,64,36,94,8,73,53,44,69,49,84,58,42,89,14,3,70,24,68,64,67,70,100,59,95,33"
dtnsim.node[5].app.destinationEid = "4,4,4,4,4,4,4,4,4,4,4,4,4,4,4,4,4,4,4,4,4,4,4,4,4,4,4,4,4,6,6,6,6,6,6,6,6,6,6,6,6,6,6,6,6,6,6,6,6,6,6,6,6,6,6,6,6,6,6,6,6,6,6,6,6,6,6,6,6,6,6,6,6,6,6,6,6,6,6,6,6,6,6,6,6,6,6,6,6,6,6,6,6,6,6,6,6,6,6,6"
dtnsim.node[5].app.size = "100,500,50,50,500,100,500,500,200,100,50,50,50,200,500,100,100,100,500,500,50,100,50,500,100,200,200,500,100,200,50,50,200,100,100,200,50,50,500,200,50,50,50,100,50,200,200,500,200,50,500,100,100,500,100,100,500,500,200,200,200,50,500,50,50,200,100,100,200,500,50,100,200,200,50,100,100,50,500,200,200,50,500,200,500,50,200,50,500,100,50,50,50,50,50,500,100,200,100,500"
# Node 6 random conversational traffic
dtnsim.node[6].app.enable = true
dtnsim.node[6].app.bundlesNumber = "3,3,5,2,2,1,3,5,1,3,5,1,4,2,2,4,3,3,1,4,5,2,1,4,5,5,5,2,5,5,1,2,1,2,3,3,4,1,2,1,2,3,2,2,2,4,5,3,2,3,2,1,1,4,3,3,1,5,2,3,1,4,1,5,3,5,3,3,4,4,2,4,3,5,3,2,3,4,5,4,2,2,5,3,4,5,1,4,2,1,4,2,5,5,3,5,1,5,3,5"
dtnsim.node[6].app.start = "87,98,28,52,99,43,76,100,34,95,92,34,10,96,17,9,54,61,46,10,38,36,41,46,11,50,97,11,79,59,52,51,88,51,4,73,28,79,66,98,43,78,31,100,1,33,45,21,55,92,84,56,89,62,18,69,35,68,13,73,47,59,22,89,21,92,93,51,58,9,39,92,67,89,60,54,86,55,2,54,90,43,50,73,29,73,19,33,76,97,38,49,91,41,87,35,78,80,22,95"
dtnsim.node[6].app.destinationEid = "5,5,5,5,5,5,5,5,5,5,5,5,5,5,5,5,5,5,5,5,5,5,5,5,5,5,5,5,5,5,5,5,5,5,5,5,5,5,5,5,5,7,7,7,7,7,7,7,7,7,7,7,7,7,7,7,7,7,7,7,7,7,7,7,7,7,7,7,7,7,7,7,7,7,7,7,7,7,7,7,7,7,7,7,7,7,7,7,7,7,7,7,7,7,7,7,7,7,7,7"
dtnsim.node[6].app.size = "50,50,500,500,50,500,50,100,50,200,500,100,500,100,500,50,50,50,500,100,200,200,100,500,500,50,200,500,200,50,200,200,200,50,50,500,200,200,200,500,500,500,200,50,200,100,50,200,500,50,50,200,500,200,200,500,200,50,100,500,100,200,500,500,200,100,200,200,100,500,50,50,200,100,500,500,100,50,200,200,500,500,100,50,50,100,50,50,100,200,50,200,100,200,500,50,100,200,200,200"
# Node 7 random conversational traffic
dtnsim.node[7].app.enable = true
dtnsim.node[7].app.bundlesNumber = "1,3,5,1,1,2,5,5,2,2,1,1,2,2,4,2,3,5,5,2,3,1,3,2,5,1,1,4,2,1,1,1,5,5,4,2,4,2,4,1,4,3,5,2,2,4,5,4,1,5,5,5,5,2,4,3,2,2,2,5,4,4,3,5,4,5,4,4,1,2,4,3,5,3,4,5,2,2,1,2,3,5,3,2,4,5,5,3,5,2,1,2,1,1,5,2,2,4,5,4"
dtnsim.node[7].app.start = "81,32,100,11,37,23,59,94,88,59,36,20,79,60,22,96,95,55,63,44,98,69,64,60,100,46,52,75,39,34,78,51,94,51,96,86,30,37,79,89,36,84,59,70,64,13,16,71,13,67,4,40,21,10,26,66,77,4,77,66,29,45,35,11,90,25,35,6,91,4,22,88,74,21,85,2,45,70,63,3,44,88,19,100,92,73,51,92,77,96,49,10,59,63,14,2,53,75,97,34"
dtnsim.node[7].app.destinationEid = "6,6,6,6,6,6,6,6,6,6,6,6,6,6,6,6,6,6,6,6,6,6,6,6,6,6,6,6,6,6,6,6,6,6,6,6,6,8,8,8,8,8,8,8,8,8,8,8,8,8,8,8,8,8,8,8,8,8,8,8,8,8,8,8,8,8,8,8,8,8,8,8,8,8,8,8,8,8,8,8,8,8,8,8,8,8,8,8,8,8,8,8,8,8,8,8,8,8,8,8"
dtnsim.node[7].app.size = "500,200,200,100,100,200,500,500,100,500,500,500,500,50,100,200,100,200,500,50,50,100,100,500,500,500,500,50,100,500,50,100,500,50,100,500,100,50,500,100,200,500,200,200,500,100,50,200,500,50,50,500,500,200,50,500,200,500,50,500,200,500,50,50,200,100,100,100,50,100,500,200,200,500,100,500,100,500,100,50,100,200,200,200,200,500,500,500,50,500,100,100,500,50,500,50,100,100,500,200"
# Node 8 random conversational traffic
dtnsim.node[8].app.enable = true
dtnsim.node[8].app.bundlesNumber = "1,1,3,3,2,2,5,3,4,1,5,2,2,4,5,3,5,3,4,2,2,3,1,2,2,3,5,3,3,2,1,1,2,1,5,4,4,2,4,1,2,3,1,2,5,4,4,2,2,3,5,3,3,4,1,1,3,4,2,3,5,5,5,3,4,5,2,4,5,3,5,2,2,2,2,2,3,5,1,4,1,3,3,2,3,5,5,4,3,1,4,4,2,5,4,5,3,1,3,2"
dtnsim.node[8].app.start = "44,69,22,75,22,73,12,47,35,80,78,76,13,27,38,7,97,24,94,80,24,92,9,54,8,46,94,20,98,58,99,86,67,72,22,3,58,78,99,54,71,80,53,77,5,83,25,61,17,84,99,25,73,17,53,39,11,65,14,78,90,99,35,62,12,33,27,13,57,28,80,25,45,84,36,63,58,100,7,56,43,59,92,3,97,75,16,9,15,3,95,13,92,63,57,10,49,70,15,99"
dtnsim.node[8].app.destinationEid = "7,7,7,7,7,7,7,7,7,7,7,7,7,7,7,7,7,7,7,7,7,7,7,7,7,7,7,7,7,7,7,7,7,7,7,7,7,7,7,9,9,9,9,9,9,9,9,9,9,9,9,9,9,9,9,9,9,9,9,9,9,9,9,9,9,9,9,9,9,9,9,9,9,9,9,9,9,9,9,9,9,9,9,9,9,9,9,9,9,9,9,9,9,9,9,9,9,9,9,9"
dtnsim.node[8].app.size = "50,500,100,100,500,100,200,500,50,50,500,500,200,200,100,500,200,500,200,50,50,100,500,50,500,200,500,50,100,50,50,100,50,100,200,500,100,100,200,100,500,50,200,50,500,50,200,100,100,100,100,100,200,200,50,50,100,500,200,200,500,200,200,100,500,100,500,100,50,50,100,50,200,500,200,100,200,200,500,200,500,100,100,100,200,500,500,100,100,100,50,50,50,500,50,500,500,100,50,50"
# Node 9 random conversational traffic
dtnsim.node[9].app.enable = true
dtnsim.node[9].app.bundlesNumber = "3,2,3,4,4,2,4,5,1,1,1,5,5,4,3,3,3,4,5,2,5,5,3,1,2,2,5,2,1,2,3,4,4,4,2,3,2,1,3,4,1,5,5,5,5,3,2,3,2,2,4,2,2,2,1,5,3,2,2,1,1,1,2,5,2,4,4,5,4,1,3,1,5,2,2,1,2,3,3,4,2,5,1,1,3,2,4,5,4,5,5,2,1,3,5,2,1,4,4,3"
dtnsim.node[9].app.start = "59,74,85,86,15,84,100,31,19,45,24,80,96,40,13,34,37,14,66,35,88,35,55,68,100,15,61,46,100,11,99,12,16,9,98,69,63,13,51,76,21,100,55,63,47,43,10,42,24,87,64,77,96,12,4,40,35,22,49,78,80,20,18,53,90,6,9,51,9,15,90,26,6,74,95,54,2,2,48,92,20,52,10,35,45,52,35,72,19,36,9,54,9,53,86,25,92,73,100,30"
dtnsim.node[9].app.destinationEid = "8,8,8,8,8,8,8,8,8,8,8,8,8,8,8,8,8,8,8,8,8,8,8,8,8,8,8,8,8,8,8,8,8,8,8,8,8,8,8,8,8,8,10,10,10,10,10,10,10,10,10,10,10,10,10,10,10,10,10,10,10,10,10,10,10,10,10,10,10,10,10,10,10,10,10,10,10,10,10,10,10,10,10,10,10,10,10,10,10,10,10,10,10,10,10,10,10,10,10,10"
dtnsim.node[9].app.size = "200,200,500,50,500,50,500,100,500,100,50,500,500,500,50,50,500,200,200,200,50,500,500,50,500,500,200,100,100,500,500,100,100,200,200,200,50,500,50,500,500,100,50,50,500,500,100,500,100,100,200,50,100,500,100,100,200,200,50,500,100,200,100,200,200,500,200,50,500,50,50,100,500,500,50,500,500,200,100,50,500,500,50,500,50,500,200,200,50,50,50,500,500,500,50,100,500,200,100,500"
# Node 10 random conversational traffic
dtnsim.node[10].app.enable = true
dtnsim.node[10].app.bundlesNumber = "5,3,4,5,4,5,1,3,1,5,3,1,2,2,2,2,2,1,2,4,4,3,3,3,2,1,3,1,5,5,1,1,5,3,2,5,1,5,2,2,1,3,5,2,5,4,2,5,1,4,4,4,3,1,2,1,3,2,1,5,3,3,2,5,4,5,3,4,1,3,4,5,4,5,1,5,2,3,1,2,5,3,3,2,2,1,1,1,3,1,2,2,3,4,1,4,1,2,5,2"
dtnsim.node[10].app.start = "58,52,18,92,70,98,12,49,37,50,82,25,21,58,92,11,57,12,24,35,7,76,100,59,9,8,49,93,22,61,46,41,78,28,41,11,64,13,62,92,28,99,35,72,3,73,21,57,55,3,75,66,96,46,66,87,31,32,96,12,49,58,41,33,57,18,3,24,60,97,43,3,1,61,81,86,79,76,67,34,4,51,44,92,85,73,90,86,41,65,86,17,32,11,30,39,16,4,63,50"
dtnsim.node[10].app.destinationEid = "9,9,9,9,9,9,9,9,9,9,9,9,9,9,9,9,9,9,9,9,9,9,9,9,9,9,9,9,9,9,9,9,9,9,9,9,9,9,9,9,9,9,9,11,11,11,11,11,11,11,11,11,11,11,11,11,11,11,11,11,11,11,11,11,11,11,11,11,11,11,11,11,11,11,11,11,11,11,11,11,11,11,11,11,11,11,11,11,11,11,11,11,11,11,11,11,11,11,11,11"
dtnsim.node[10].app.size = "50,200,100,100,500,50,100,100,500,50,50,200,200,50,200,200,200,50,50,100,500,50,50,100,100,200,200,500,200,500,100,200,500,100,100,500,50,100,50,200,200,200,500,500,50,50,200,200,200,50,200,500,100,100,50,200,200,500,100,50,50,100,50,50,500,200,200,500,500,500,500,50,500,200,500,200,50,100,500,50,200,500,50,100,100,100,200,500,200,50,500,50,200,500,50,500,500,100,50,200"
# Node 11 random conversational traffic
dtnsim.node[11].app.enable = true
dtnsim.node[11].app.bundlesNumber = "3,4,5,3,3,1,4,2,1,3,1,4,4,5,4,3,2,1,1,3,2,2,1,2,4,2,1,3,4,5,5,1,1,3,5,1,2,5,5,3,2,4,5,1,3,3,3,1,1,1,2,2,3,2,3,2,4,4,4,5,1,2,2,1,3,3,2,4,3,5,1,1,5,3,4,4,1,4,4,4,5,2,2,1,1,3,1,4,4,1,3,3,2,4,4,4,1,4,5,1"
dtnsim.node[11].app.start = "5,62,57,4,48,67,91,40,33,18,51,47,43,65,24,100,95,81,76,38,53,53,90,88,66,93,22,33,14,48,7,68,60,48,100,94,68,49,41,16,1,91,42,77,71,26,24,73,48,85,63,5,88,22,16,53,8,82,53,87,57,52,98,2,24,91,97,59,62,47,23,4,56,52,83,8,26,45,28,5,10,51,19,14,76,100,64,44,38,30,48,72,89,25,68,6,85,88,30,93"
dtnsim.node[11].app.destinationEid = "10,10,10,10,10,10,10,10,10,10,10,10,10,10,10,10,10,10,10,10,10,10,10,10,10,10,10,10,10,10,10,10,10,12,12,12,12,12,12,12,12,12,12,12,12,12,12,12,12,12,12,12,12,12,12,12,12,12,12,12,12,12,12,12,12,12,12,12,12,12,12,12,12,12,12,12,12,12,12,12,12,12,12,12,12,12,12,12,12,12,12,12,12,12,12,12,12,12,12,12"
dtnsim.node[11].app.size = "100,200,100,200,500,500,200,50,100,500,100,100,500,200,50,200,100,500,100,200,50,500,500,200,500,100,50,500,500,200,50,500,200,200,500,200,500,50,500,50,500,50,50,100,200,500,50,50,50,200,500,200,50,50,50,500,500,200,50,50,500,50,100,50,500,500,100,100,100,500,200,200,500,200,500,500,200,50,100,100,50,100,500,500,500,100,100,200,50,100,200,50,50,50,200,100,500,100,500,200"
# Node 12 random conversational traffic
dtnsim.node[12].app.enable = true
dtnsim.node[12].app.bundlesNumber = "4,1,5,5,4,3,2,3,2,4,1,1,4,4,3,4,4,1,5,5,4,4,2,3,5,3,5,4,5,1,2,2,2,3,1,5,1,4,3,2,2,5,4,1,2,3,1,5,1,3,4,5,3,2,1,5,4,3,1,1,2,4,1,3,1,5,2,5,2,4,5,4,4,2,1,2,4,3,3,4,1,5,5,1,1,4,5,1,5,3,3,3,1,1,5,1,2,4,3,5"
dtnsim.node[12].app.start = "58,100,100,74,50,46,8,44,81,27,57,95,10,22,57,12,89,54,100,30,100,50,61,59,93,10,55,11,15,52,20,100,50,39,55,90,77,11,87,92,32,26,52,95,10,80,71,50,74,70,91,89,91,52,48,72,86,21,63,10,72,21,63,48,72,16,71,82,56,88,48,79,29,67,70,24,45,78,86,98,42,95,73,68,19,4,19,88,42,79,77,86,14,60,36,3,27,59,7,58"
dtnsim.node[12].app.destinationEid = "11,11,11,11,11,11,11,11,11,11,11,11,11,11,11,11,11,11,11,11,11,11,11,11,11,11,11,11,11,11,11,11,11,11,11,11,11,11,11,11,11,13,13,13,13,13,13,13,13,13,13,13,13,13,13,13,13,13,13,13,13,13,13,13,13,13,13,13,13,13,13,13,13,13,13,13,13,13,13,13,13,13,13,13,13,13,13,13,13,13,13,13,13,13,13,13,13,13,13,13"
dtnsim.node[12].app.size = "500,50,500,200,100,500,200,200,500,500,500,50,50,200,500,100,200,50,100,50,50,50,100,500,500,200,500,200,200,100,500,500,100,100,50,100,50,50,200,500,50,500,200,50,200,200,50,500,100,100,50,100,200,100,500,500,50,50,50,50,200,500,100,50,50,500,50,50,500,100,200,200,200,500,50,500,100,50,100,50,50,100,100,50,500,50,100,500,50,500,100,50,200,50,100,50,100,500,100,500"
# Node 13 random conversational traffic
dtnsim.node[13].app.enable = true
dtnsim.node[13].app.bundlesNumber = "1,4,4,2,5,3,2,3,5,5,3,2,2,2,3,4,3,1,1,4,3,5,1,3,5,5,2,4,2,4,1,4,3,2,5,5,2,2,4,5,1,4,2,2,3,4,4,3,4,1,3,1,1,5,5,3,2,1,4,5,5,3,5,2,1,1,3,5,5,4,3,1,3,5,3,4,2,4,5,4,3,2,4,3,2,5,4,4,2,2,1,2,1,5,1,1,3,3,3,4"
dtnsim.node[13].app.start = "27,57,20,75,60,80,74,95,94,74,19,75,80,21,80,86,58,93,57,37,78,30,54,88,87,99,51,79,22,97,44,88,21,39,16,67,8,42,39,23,37,34,81,30,75,44,64,70,74,1,5,67,37,93,40,86,81,65,93,27,79,23,43,74,85,13,79,20,39,23,5,95,9,72,52,9,36,15,89,40,53,39,15,81,97,40,31,23,44,73,33,93,57,85,12,38,86,53,18,45"
dtnsim.node[13].app.destinationEid = "12,12,12,12,12,12,12,12,12,12,12,12,12,12,12,12,12,12,12,12,12,12,12,12,12,12,12,12,12,12,12,12,12,12,12,12,14,14,14,14,14,14,14,14,14,14,14,14,14,14,14,14,14,14,14,14,14,14,14,14,14,14,14,14,14,14,14,14,14,14,14,14,14,14,14,14,14,14,14,14,14,14,14,14,14,14,14,14,14,14,14,14,14,14,14,14,14,14,14,14"
dtnsim.node[13].app.size = "100,100,500,500,100,500,100,200,50,200,50,500,50,500,50,100,100,500,200,500,200,500,50,50,50,500,200,100,200,50,500,200,500,200,100,200,50,500,50,100,50,500,100,500,500,500,200,100,100,50,100,50,100,100,100,100,50,100,500,50,100,50,500,100,500,200,200,100,200,100,500,500,200,200,500,100,50,100,100,200,200,100,200,50,500,500,100,500,50,200,50,100,200,200,50,100,200,500,200,50"
# Node 14 random conversational traffic
dtnsim.node[14].app.enable = true
dtnsim.node[14].app.bundlesNumber = "5,4,3,5,5,2,2,3,4,2,2,3,5,5,2,1,2,2,4,2,5,1,5,2,2,4,3,3,5,1,2,4,1,1,4,4,1,3,4,3,5,1,3,5,2,4,1,4,4,2,3,1,2,5,5,4,2,3,5,2,4,5,1,3,3,2,1,1,2,4,3,5,1,2,1,1,2,5,1,1,4,4,4,5,3,2,3,3,4,4,3,4,4,3,1,2,1,4,5,2"
dtnsim.node[14].app.start = "17,47,46,36,67,79,78,14,68,43,46,90,98,26,52,80,90,81,24,42,27,9,98,59,19,22,98,54,20,84,99,51,74,35,98,62,86,18,42,90,56,53,35,51,28,43,89,53,80,82,40,17,38,45,37,41,5,88,46,52,35,49,25,77,86,8,19,95,61,23,17,81,86,15,62,90,49,8,73,97,20,66,7,40,42,49,92,56,53,20,12,27,58,92,52,10,81,55,82,12"
dtnsim.node[14].app.destinationEid = "13,13,13,13,13,13,13,13,13,13,13,13,13,13,13,13,13,13,13,13,13,13,13,13,13,13,13,13,13,13,13,13,13,13,13,13,13,13,13,13,13,13,15,15,15,15,15,15,15,15,15,15,15,15,15,15,15,15,15,15,15,15,15,15,15,15,15,15,15,15,15,15,15,15,15,15,15,15,15,15,15,15,15,15,15,15,15,15,15,15,15,15,15,15,15,15,15,15,15,15"
dtnsim.node[14].app.size = "50,200,100,500,50,200,500,50,500,200,500,50,500,500,500,200,500,200,500,100,50,500,500,50,50,200,200,500,500,100,200,50,200,500,50,50,50,500,200,100,500,100,500,100,500,50,200,100,500,50,50,50,50,200,50,50,50,100,500,200,200,100,500,50,200,200,50,50,50,100,200,50,50,500,100,200,200,200,200,100,100,50,100,200,50,50,200,500,500,50,100,200,100,500,50,100,50,500,200,50"
# Node 15 random conversational traffic
dtnsim.node[15].app.enable = true
dtnsim.node[15].app.bundlesNumber = "5,1,1,2,5,2,2,5,5,2,5,2,1,4,2,4,5,2,2,5,2,3,5,2,1,2,3,5,2,5,2,3,3,3,3,4,4,4,4,5,5,4,4,5,3,2,1,5,4,5,5,4,4,4,1,2,1,3,1,2,4,1,2,5,3,1,3,2,2,4,5,4,5,2,3,4,3,4,4,4,1,5,2,3,3,3,1,3,2,5,5,5,3,5,3,4,5,2,5,5"
dtnsim.node[15].app.start = "40,36,63,85,41,25,45,48,42,49,55,37,50,34,86,92,9,27,96,66,20,84,24,63,57,24,68,42,96,19,98,54,83,61,91,15,34,72,41,73,6,68,1,30,52,37,59,97,14,34,86,17,13,63,53,40,39,32,72,19,31,70,18,31,93,50,44,82,46,56,29,75,45,28,29,12,47,61,20,90,8,49,71,51,18,49,28,82,91,9,60,63,8,80,40,11,11,14,68,86"
dtnsim.node[15].app.destinationEid = "14,14,14,14,14,14,14,14,14,14,14,14,14,14,14,14,14,14,14,14,14,14,14,14,14,14,14,14,14,14,14,14,14,14,14,14,16,16,16,16,16,16,16,16,16,16,16,16,16,16,16,16,16,16,16,16,16,16,16,16,16,16,16,16,16,16,16,16,16,16,16,16,16,16,16,16,16,16,16,16,16,16,16,16,16,16,16,16,16,16,16,16,16,16,16,16,16,16,16,16"
dtnsim.node[15].app.size = "100,200,500,50,200,500,100,200,200,200,500,50,200,500,500,200,200,500,500,100,50,500,100,200,100,200,500,500,50,100,50,200,100,100,500,200,500,500,200,200,50,500,500,200,100,200,50,500,500,100,50,500,100,200,500,500,200,200,100,100,200,500,50,100,200,500,500,50,100,50,200,500,200,500,200,500,50,200,200,100,500,500,50,200,100,500,100,100,200,100,50,500,500,50,200,100,500,100,100,500"
# Node 16 random conversational traffic
dtnsim.node[16].app.enable = true
dtnsim.node[16].app.bundlesNumber = "2,4,2,3,1,5,3,2,3,5,5,5,2,5,3,1,4,3,1,4,4,5,5,5,2,1,5,1,3,5,4,2,3,5,4,5,5,2,2,1,1,5,1,1,3,5,3,1,4,3,4,1,2,3,4,5,1,2,4,2,1,3,2,1,4,5,3,2,1,5,4,1,5,4,2,4,1,1,2,5,5,4,3,5,3,4,2,3,3,2,2,4,4,3,1,1,3,1,5,1"
dtnsim.node[16].app.start = "40,76,8,33,43,99,19,93,18,18,67,59,48,46,39,77,28,19,97,51,90,84,49,29,37,50,30,96,17,74,61,37,84,12,11,44,76,87,56,3,90,53,40,7,58,32,77,37,100,61,40,83,22,55,11,98,71,33,42,94,76,81,11,60,27,64,95,38,17,54,2,28,19,79,45,8,7,5,52,37,44,15,65,17,34,60,59,48,47,46,8,85,32,70,44,4,23,87,1,29"
dtnsim.node[16].app.destinationEid = "15,15,15,15,15,15,15,15,15,15,15,15,15,15,15,15,15,15,15,15,15,15,15,15,15,15,15,15,15,15,15,15,15,15,15,15,15,15,17,17,17,17,17,17,17,17,17,17,17,17,17,17,17,17,17,17,17,17,17,17,17,17,17,17,17,17,17,17,17,17,17,17,17,17,17,17,17,17,17,17,17,17,17,17,17,17,17,17,17,17,17,17,17,17,17,17,17,17,17,17"
dtnsim.node[16].app.size = "50,100,50,500,50,50,500,500,100,100,50,50,50,200,100,200,100,100,100,100,200,500,100,100,500,50,100,100,500,200,50,100,50,500,200,200,200,50,500,100,200,500,50,500,200,200,500,100,50,50,200,50,200,100,500,50,200,200,50,100,50,500,500,200,500,100,500,200,50,500,50,50,500,200,100,100,200,50,200,500,50,200,500,100,200,50,50,100,200,500,200,500,100,500,100,500,50,100,500,500"
# Node 17 random conversational traffic
dtnsim.node[17].app.enable = true
dtnsim.node[17].app.bundlesNumber = "4,3,5,1,3,4,4,5,2,3,1,3,3,4,1,3,2,3,4,5,5,3,3,3,2,1,2,1,5,1,5,3,5,3,5,5,4,3,5,1,3,1,3,4,5,1,2,1,3,1,2,2,2,4,1,5,1,1,1,5,2,2,2,3,5,2,1,2,5,2,4,5,2,2,5,4,1,3,4,2,5,4,1,1,2,4,1,1,2,2,3,1,5,1,4,2,4,4,3,1"
dtnsim.node[17].app.start = "58,10,62,44,17,65,40,83,100,63,46,26,65,73,40,95,61,66,96,48,26,58,5,22,80,47,15,38,53,23,70,21,39,66,69,51,57,53,89,79,8,97,9,32,82,94,23,85,42,61,58,11,84,34,14,23,14,20,15,24,89,39,84,34,61,1,68,5,79,13,85,14,55,16,63,1,96,58,28,15,14,6,9,38,36,58,68,5,44,46,91,36,51,24,28,88,2,16,26,60"
dtnsim.node[17].app.destinationEid = "16,16,16,16,16,16,16,16,16,16,16,16,16,16,16,16,16,16,16,16,16,16,16,16,16,16,16,16,16,16,16,16,16,16,16,16,16,16,16,16,16,16,16,16,18,18,18,18,18,18,18,18,18,18,18,18,18,18,18,18,18,18,18,18,18,18,18,18,18,18,18,18,18,18,18,18,18,18,18,18,18,18,18,18,18,18,18,18,18,18,18,18,18,18,18,18,18,18,18,18"
dtnsim.node[17].app.size = "200,200,500,500,100,50,50,50,50,100,200,50,50,200,100,200,100,500,100,200,50,100,50,200,500,200,100,200,100,500,100,50,100,100,50,100,50,500,50,200,500,500,100,100,200,100,200,100,500,500,100,200,500,500,50,100,200,200,500,100,50,50,500,500,50,200,200,500,200,50,200,500,100,100,50,500,100,50,50,50,500,500,200,200,100,500,100,200,50,50,500,500,200,50,200,100,500,50,100,100"
# Node 18 random conversational traffic
dtnsim.node[18].app.enable = true
dtnsim.node[18].app.bundlesNumber = "5,3,3,4,4,3,1,2,2,4,2,5,4,5,2,5,5,4,4,4,3,4,3,1,3,2,5,1,4,5,4,4,5,2,2,4,5,3,4,1,1,5,2,4,3,2,3,4,2,4,3,2,2,2,1,1,4,4,2,5,4,2,3,5,1,3,4,4,1,4,3,3,1,2,1,3,1,4,1,1,2,5,3,3,2,2,1,3,4,1,2,4,2,4,1,2,2,3,5,4"
dtnsim.node[18].app.start = "98,87,67,68,25,34,93,40,87,43,71,5,74,17,20,59,22,71,62,37,23,21,46,78,9,52,29,98,25,35,66,45,38,61,8,9,30,25,88,41,95,74,24,92,35,29,58,18,27,69,11,92,19,17,2,72,88,95,3,20,98,16,58,20,65,70,68,30,26,55,81,93,62,54,32,18,22,68,35,94,24,34,67,32,93,27,38,13,19,49,88,52,7,61,16,83,91,93,100,45"
dtnsim.node[18].app.destinationEid = "17,17,17,17,17,17,17,17,17,17,17,17,17,17,17,17,17,17,17,17,17,17,17,17,17,17,17,17,17,17,17,19,19,19,19,19,19,19,19,19,19,19,19,19,19,19,19,19,19,19,19,19,19,19,19,19,19,19,19,19,19,19,19,19,19,19,19,19,19,19,19,19,19,19,19,19,19,19,19,19,19,19,19,19,19,19,19,19,19,19,19,19,19,19,19,19,19,19,19,19"
dtnsim.node[18].app.size = "200,500,200,200,100,500,200,500,200,100,50,100,500,500,100,100,100,50,50,50,100,500,50,50,200,50,50,200,100,500,100,50,200,500,200,500,500,200,50,100,100,50,100,100,500,200,100,100,100,50,50,500,200,100,200,500,200,100,100,200,50,100,100,200,200,50,50,50,100,50,200,50,50,100,50,100,500,100,50,50,50,50,50,500,50,50,50,50,500,200,200,200,500,500,500,100,500,500,100,50"
# Node 19 random conversational traffic
dtnsim.node[19].app.enable = true
dtnsim.node[19].app.bundlesNumber = "4,3,5,2,1,4,5,3,5,1,5,1,4,1,1,4,1,5,5,2,3,2,2,4,2,2,2,1,2,1,4,4,1,1,5,1,4,4,3,2,2,4,5,2,2,1,2,3,2,5,1,1,5,3,2,2,5,3,5,4,2,3,5,3,4,2,3,5,2,5,1,4,2,4,1,4,3,1,4,5,4,1,3,2,3,1,2,3,4,3,1,2,2,5,3,3,1,2,4,5"
dtnsim.node[19].app.start = "50,41,13,14,32,50,96,100,35,65,20,30,73,13,97,27,20,8,75,91,8,100,63,21,73,36,58,70,78,43,29,40,21,26,51,17,71,23,85,96,46,34,71,97,28,19,66,31,38,33,76,28,27,31,49,39,93,70,83,51,21,45,13,63,76,45,77,29,76,48,95,70,23,71,17,61,59,67,91,11,47,74,84,9,88,85,58,42,40,88,4,32,87,26,40,70,56,27,95,83"
dtnsim.node[19].app.destinationEid = "18,18,18,18,18,18,18,18,18,18,18,18,18,18,18,18,18,18,18,18,18,18,18,18,18,18,18,18,18,18,18,18,18,18,18,18,18,18,18,18,18,20,20,20,20,20,20,20,20,20,20,20,20,20,20,20,20,20,20,20,20,20,20,20,20,20,20,20,20,20,20,20,20,20,20,20,20,20,20,20,20,20,20,20,20,20,20,20,20,20,20,20,20,20,20,20,20,20,20,20"
dtnsim.node[19].app.size = "50,50,100,100,50,50,100,200,100,50,500,200,50,50,200,50,50,50,100,500,200,100,50,100,500,50,500,50,200,100,50,100,500,500,500,500,50,200,500,500,100,100,500,500,200,200,50,100,50,200,200,200,50,100,200,100,200,500,500,50,500,500,200,100,100,100,100,500,50,500,50,200,50,100,500,50,100,200,50,50,500,200,50,500,50,200,500,100,50,200,100,500,50,200,200,100,200,500,200,100"
# Node 20 random conversational traffic
dtnsim.node[20].app.enable = true
dtnsim.node[20].app.bundlesNumber = "3,1,2,4,5,2,4,1,1,4,3,5,2,1,3,2,1,1,4,3,5,1,1,4,1,2,4,2,5,5,3,2,2,3,4,1,3,1,4,5,4,4,1,5,3,5,2,2,1,4,4,4,4,5,5,2,5,4,3,4,5,4,3,3,5,1,4,4,1,2,2,5,4,3,4,3,2,2,2,2,4,5,4,3,3,3,1,1,3,5,3,4,5,5,1,4,5,4,1,4"
dtnsim.node[20].app.start = "78,36,41,77,32,57,30,68,79,46,82,34,79,58,79,63,70,14,50,85,19,91,64,51,98,5,42,97,28,43,78,34,85,95,63,90,81,82,54,38,84,56,88,66,29,27,48,34,62,98,4,88,37,88,89,82,57,14,35,70,85,61,87,82,65,32,84,24,10,77,4,55,92,54,20,42,10,43,66,81,41,19,52,95,81,44,51,11,11,82,92,64,9,27,44,25,92,4,23,37"
dtnsim.node[20].app.destinationEid = "19,19,19,19,19,19,19,19,19,19,19,19,19,19,19,19,19,19,19,19,19,19,19,19,19,19,19,19,19,19,19,19,19,21,21,21,21,21,21,21,21,21,21,21,21,21,21,21,21,21,21,21,21,21,21,21,21,21,21,21,21,21,21,21,21,21,21,21,21,21,21,21,21,21,21,21,21,21,21,21,21,21,21,21,21,21,21,21,21,21,21,21,21,21,21,21,21,21,21,21"
dtnsim.node[20].app.size = "500,100,50,200,200,50,200,500,200,100,200,500,100,50,50,200,200,50,100,100,200,100,200,200,50,200,100,200,500,50,200,500,50,500,100,100,50,100,200,200,100,500,50,50,200,50,100,200,500,50,500,500,100,50,500,100,100,200,50,500,500,200,200,50,500,50,100,50,200,100,200,100,50,500,500,100,100,200,200,500,50,100,200,100,100,500,100,200,100,100,50,100,500,50,50,100,50,50,50,100"
# Node 21 random conversational traffic
dtnsim.node[21].app.enable = true
dtnsim.node[21].app.bundlesNumber = "5,2,5,4,3,4,2,5,2,2,5,2,5,2,5,2,4,1,1,2,1,3,2,5,2,2,5,5,1,5,3,3,1,3,5,5,1,3,5,1,3,5,5,2,5,1,5,2,3,4,4,3,2,5,3,2,4,3,5,5,1,3,1,5,2,3,5,3,2,3,3,5,5,3,2,3,5,1,4,3,2,1,4,4,4,1,1,1,4,2,4,4,3,3,5,4,3,3,3,5"
dtnsim.node[21].app.start = "96,57,40,86,28,50,35,72,100,95,42,95,90,66,18,68,89,66,33,94,27,81,9,97,55,21,43,51,75,88,23,58,47,59,94,11,9,28,38,35,25,28,39,57,58,22,100,50,66,45,77,43,98,89,20,36,95,79,72,10,46,77,23,13,85,35,67,45,95,31,32,5,65,96,47,97,9,78,6,31,72,73,63,5,83,38,26,92,77,25,46,47,26,18,83,38,2,7,33,40"
dtnsim.node[21].app.destinationEid = "20,20,20,20,20,20,20,20,20,20,20,20,20,20,20,20,20,20,20,20,20,20,20,20,20,20,20,20,20,20,20,20,20,20,20,20,20,20,20,22,22,22,22,22,22,22,22,22,22,22,22,22,22,22,22,22,22,22,22,22,22,22,22,22,22,22,22,22,22,22,22,22,22,22,22,22,22,22,22,22,22,22,22,22,22,22,22,22,22,22,22,22,22,22,22,22,22,22,22,22"
dtnsim.node[21].app.size = "200,500,50,50,200,200,200,100,200,200,50,500,100,500,50,200,50,50,200,100,500,100,500,500,500,200,100,100,100,100,500,500,500,50,50,100,50,500,500,500,500,200,500,50,100,200,200,500,200,200,500,200,100,500,200,100,200,100,100,500,500,200,50,200,500,200,200,100,100,200,100,500,200,500,500,100,200,50,100,500,200,100,500,50,500,50,500,50,50,50,200,100,200,100,500,50,50,100,100,100"
# Node 22 random conversational traffic
dtnsim.node[22].app.enable = true
dtnsim.node[22].app.bundlesNumber = "4,2,4,4,5,3,1,3,5,3,4,2,2,3,3,1,4,1,2,2,1,5,3,4,5,4,3,2,5,3,5,4,5,1,2,2,3,3,5,3,5,3,3,2,2,4,3,4,3,1,1,5,1,2,1,5,5,3,1,4,3,3,4,3,5,4,1,3,4,5,2,3,4,3,2,2,4,4,4,2,5,3,3,5,1,5,5,4,4,3,3,1,1,4,4,1,4,2,4,4"
dtnsim.node[22].app.start = "32,30,27,54,83,53,29,80,79,20,51,87,17,94,77,51,100,34,14,75,100,98,12,83,13,65,12,87,35,98,83,31,50,57,30,90,9,12,36,49,54,46,28,96,23,3,14,10,68,59,68,22,68,10,40,84,99,10,6,27,37,28,4,43,65,77,69,36,12,19,41,58,93,22,82,60,28,9,60,44,10,78,52,60,71,57,5,87,9,10,32,64,43,2,99,8,79,60,9,70"
dtnsim.node[22].app.destinationEid = "21,21,21,21,21,21,21,21,21,21,21,21,21,21,21,21,21,21,21,21,21,21,21,21,21,21,21,21,21,21,21,21,21,21,21,21,21,21,21,21,23,23,23,23,23,23,23,23,23,23,23,23,23,23,23,23,23,23,23,23,23,23,23,23,23,23,23,23,23,23,23,23,23,23,23,23,23,23,23,23,23,23,23,23,23,23,23,23,23,23,23,23,23,23,23,23,23,23,23,23"