[General]
network = src.dtnsim										
repeat = 1
allow-object-stealing-on-deletion = true

# Simulation end time
sim-time-limit = 84600s

# Nodes quantity (identifiers (EiDs) matches their index, EiD=0 is ignored)			
dtnsim.nodesNumber = 180
dtnsim.node[*].icon = "satellite"

# Nodes's failure rates
dtnsim.node[*].fault.enable = false
dtnsim.node[*].fault.meanTTF = 0s
dtnsim.node[*].fault.meanTTR = 0s

# Mobility
dtnsim.node[*].hasMobility = true
dtnsim.node[*].noradModule.satIndex = parentIndex()
dtnsim.node[*].noradModule.satName = "sat"
**.updateInterval = 20s
**.numOfSats = 180
**.satPerPlane = 15
**.altitude = 540
**.planes = 12
**.phaseOffset = 7

dtnsim.node[*].dtn.routing = "antop"
dtnsim.node[*].dtn.printRoutingDebug = true

# --- Random Traffic Configuration ---
# Node 1 random traffic
dtnsim.node[1].app.enable = true
dtnsim.node[1].app.bundlesNumber = "1,1,1,1,1,1,1,1,1,1,1,1,1,1,1,1,1,1,1,1,1,1,1,1,1,1,1,1,1,1,1,1,1,1,1,1,1,1,1,1,1,1,1,1,1,1,1,1,1,1,1,1,1,1,1,1,1,1,1,1,1,1,1,1,1,1,1,1,1,1,1,1,1,1,1,1,1,1,1,1,1,1,1,1,1,1,1,1,1,1,1,1,1,1,1,1,1,1,1,1"
dtnsim.node[1].app.start = "12,4,9,1,18,14,1,12,7,16,18,5,1,12,1,9,8,11,14,18,19,17,6,13,12,16,4,19,3,14,13,7,8,2,3,13,5,8,19,16,3,14,19,3,2,18,20,9,6,19,7,20,2,10,7,12,16,18,12,10,8,6,11,5,2,13,11,13,10,9,11,20,1,6,3,9,16,15,9,12,3,13,18,16,14,16,7,10,9,10,5,5,12,14,4,11,10,12,16,11"
dtnsim.node[1].app.destinationEid = "10,172,171,66,114,89,153,60,94,165,46,117,109,87,109,118,173,100,18,41,133,148,146,156,28,75,5,130,72,140,89,24,9,104,167,77,111,148,68,84,69,152,70,137,178,114,148,68,180,103,64,20,4,48,143,72,143,129,107,85,120,92,124,114,6,170,22,33,34,134,53,65,103,146,42,172,35,38,128,135,36,116,78,111,129,128,39,164,131,113,123,12,158,157,171,84,67,66,109,47"
dtnsim.node[1].app.size = "100,50,100,200,100,100,100,100,200,500,100,200,500,50,50,200,100,200,200,200,50,100,50,500,100,100,100,500,500,500,50,100,50,50,100,200,200,50,500,50,100,200,500,200,100,500,100,500,100,200,500,500,200,200,500,500,50,50,100,50,50,500,50,50,50,200,500,500,500,200,50,50,500,50,500,50,500,50,50,50,100,200,100,200,200,500,50,100,100,500,500,50,500,200,50,50,50,100,200,50"
        # Node 2 random traffic
dtnsim.node[2].app.enable = true
dtnsim.node[2].app.bundlesNumber = "1,1,1,1,1,1,1,1,1,1,1,1,1,1,1,1,1,1,1,1,1,1,1,1,1,1,1,1,1,1,1,1,1,1,1,1,1,1,1,1,1,1,1,1,1,1,1,1,1,1,1,1,1,1,1,1,1,1,1,1,1,1,1,1,1,1,1,1,1,1,1,1,1,1,1,1,1,1,1,1,1,1,1,1,1,1,1,1,1,1,1,1,1,1,1,1,1,1,1,1"
dtnsim.node[2].app.start = "2,5,15,13,12,3,14,14,9,16,16,15,15,16,4,18,19,18,8,6,19,6,6,20,13,13,8,11,12,2,7,15,5,3,18,18,1,2,15,12,19,6,19,3,18,3,7,5,2,16,8,2,16,16,7,20,12,15,4,19,10,9,10,8,4,1,8,6,10,5,13,1,18,8,10,5,5,1,7,8,14,7,11,1,3,15,4,12,7,3,8,19,13,2,2,14,17,15,15,10"
dtnsim.node[2].app.destinationEid = "38,74,69,37,91,57,17,143,160,157,43,180,77,50,69,7,62,1,109,157,48,66,105,97,128,47,5,134,140,175,159,60,153,17,4,112,106,128,64,133,1,148,136,171,134,35,92,21,153,22,150,146,109,105,13,100,96,74,90,179,49,169,37,28,34,109,16,110,121,177,55,104,96,162,72,104,24,72,126,40,115,96,170,107,29,112,130,99,38,84,23,75,50,18,31,65,143,5,141,157"
dtnsim.node[2].app.size = "200,500,100,500,50,50,500,100,500,100,200,500,200,100,200,500,500,500,200,100,50,100,200,500,200,500,200,50,500,200,500,100,50,500,100,50,50,50,50,500,500,100,100,100,50,500,100,500,500,100,50,500,200,100,100,50,500,100,200,50,50,200,50,200,200,500,200,200,200,50,50,50,100,100,100,50,500,200,100,100,500,50,200,200,50,50,50,500,200,500,100,200,500,200,200,50,100,500,500,100"
        # Node 3 random traffic
dtnsim.node[3].app.enable = true
dtnsim.node[3].app.bundlesNumber = "1,1,1,1,1,1,1,1,1,1,1,1,1,1,1,1,1,1,1,1,1,1,1,1,1,1,1,1,1,1,1,1,1,1,1,1,1,1,1,1,1,1,1,1,1,1,1,1,1,1,1,1,1,1,1,1,1,1,1,1,1,1,1,1,1,1,1,1,1,1,1,1,1,1,1,1,1,1,1,1,1,1,1,1,1,1,1,1,1,1,1,1,1,1,1,1,1,1,1,1"
dtnsim.node[3].app.start = "3,14,13,7,14,17,5,15,18,13,15,11,5,11,11,15,16,17,11,12,10,4,4,2,2,5,10,15,10,17,9,7,18,2,6,3,13,2,20,11,18,15,14,10,7,18,8,17,14,14,2,13,3,13,14,20,18,17,18,20,13,4,5,9,6,12,20,2,15,3,17,9,4,1,6,8,3,16,18,10,14,18,4,19,13,5,9,11,4,1,2,12,14,14,4,7,16,17,1,4"
dtnsim.node[3].app.destinationEid = "69,95,39,40,159,118,159,129,163,5,83,114,82,112,103,133,84,141,106,83,43,87,37,90,161,177,154,134,38,67,109,86,135,36,61,56,140,33,108,162,120,129,49,114,172,94,62,14,81,161,84,14,122,124,30,154,117,80,110,156,115,21,153,95,52,23,150,151,126,76,57,1,123,47,42,74,180,114,149,10,173,174,87,1,151,125,135,13,98,109,99,62,135,28,65,160,78,140,30,146"
dtnsim.node[3].app.size = "50,500,100,500,50,50,50,50,100,200,50,200,50,50,200,50,50,50,200,500,100,500,100,100,500,500,200,50,500,50,500,50,100,50,50,200,200,50,100,50,200,200,200,500,100,100,50,500,50,100,50,100,200,100,200,200,50,50,200,50,50,200,100,100,500,100,200,50,500,500,50,200,200,50,500,200,50,500,500,500,200,50,500,50,100,50,200,500,100,200,500,500,200,200,200,100,100,100,500,50"
        # Node 4 random traffic
dtnsim.node[4].app.enable = true
dtnsim.node[4].app.bundlesNumber = "1,1,1,1,1,1,1,1,1,1,1,1,1,1,1,1,1,1,1,1,1,1,1,1,1,1,1,1,1,1,1,1,1,1,1,1,1,1,1,1,1,1,1,1,1,1,1,1,1,1,1,1,1,1,1,1,1,1,1,1,1,1,1,1,1,1,1,1,1,1,1,1,1,1,1,1,1,1,1,1,1,1,1,1,1,1,1,1,1,1,1,1,1,1,1,1,1,1,1,1"
dtnsim.node[4].app.start = "19,6,16,1,1,4,10,11,11,18,2,10,3,8,14,16,17,5,6,11,6,4,15,5,12,13,5,5,13,16,20,14,14,4,7,17,4,12,6,13,10,11,7,18,13,18,13,3,19,8,19,5,12,13,16,10,20,19,6,17,9,1,7,10,18,20,4,15,12,19,9,6,8,8,8,12,18,6,10,7,14,5,20,14,10,17,18,15,17,8,20,13,6,13,16,4,14,16,14,9"
dtnsim.node[4].app.destinationEid = "22,101,29,34,172,144,62,130,40,65,179,103,49,28,33,9,98,66,146,131,157,29,178,58,141,111,85,44,109,106,17,52,39,127,34,114,129,135,154,176,1,51,134,84,174,91,27,44,76,161,35,158,159,8,86,131,64,45,28,91,33,39,131,10,96,154,100,121,76,78,146,75,84,144,160,101,70,128,170,98,76,6,165,142,49,94,87,35,48,139,108,154,149,155,160,176,72,123,157,175"
dtnsim.node[4].app.size = "200,100,50,200,200,100,100,500,50,50,200,200,50,200,100,50,50,50,500,200,200,100,200,500,200,100,50,50,500,100,50,100,50,100,50,100,200,200,100,200,500,500,200,500,200,200,500,100,50,200,50,50,50,200,200,500,200,100,50,100,200,200,500,50,200,200,200,200,50,100,500,500,500,500,500,100,100,500,100,200,50,50,100,500,200,200,50,50,50,200,500,200,500,500,200,500,200,200,200,50"
        # Node 5 random traffic
dtnsim.node[5].app.enable = true
dtnsim.node[5].app.bundlesNumber = "1,1,1,1,1,1,1,1,1,1,1,1,1,1,1,1,1,1,1,1,1,1,1,1,1,1,1,1,1,1,1,1,1,1,1,1,1,1,1,1,1,1,1,1,1,1,1,1,1,1,1,1,1,1,1,1,1,1,1,1,1,1,1,1,1,1,1,1,1,1,1,1,1,1,1,1,1,1,1,1,1,1,1,1,1,1,1,1,1,1,1,1,1,1,1,1,1,1,1,1"
dtnsim.node[5].app.start = "4,4,20,14,19,11,15,6,4,13,3,18,15,13,17,9,7,11,18,10,18,19,7,13,14,19,16,18,7,18,8,14,8,3,17,12,12,11,19,2,11,20,11,17,19,13,5,3,13,20,13,8,5,1,13,12,6,2,16,14,14,13,19,10,19,17,11,15,7,19,15,8,14,19,3,13,1,2,16,8,3,10,13,14,13,10,13,18,13,18,4,3,3,9,10,9,3,10,14,7"
dtnsim.node[5].app.destinationEid = "55,170,144,113,137,59,69,53,98,115,166,83,160,104,127,21,146,119,111,91,119,13,52,168,59,15,89,164,107,16,68,64,35,95,123,109,22,25,124,7,121,4,159,40,67,145,168,48,131,12,133,16,2,145,43,47,148,43,37,148,150,4,158,29,60,137,147,29,145,93,109,148,137,160,39,141,133,46,54,154,4,93,148,165,19,132,158,90,55,16,19,102,178,31,150,154,89,30,17,55"
dtnsim.node[5].app.size = "50,50,100,500,500,200,50,200,50,200,50,500,200,200,100,200,500,100,500,200,200,200,50,200,200,100,500,500,100,100,50,100,50,200,200,200,500,200,100,50,500,50,100,200,200,100,500,50,50,200,500,100,50,100,100,200,50,50,200,50,200,50,50,100,200,200,200,50,500,500,100,50,100,200,200,200,100,500,50,200,50,500,50,50,100,500,50,50,200,200,50,200,100,100,200,500,50,500,200,500"
        # Node 6 random traffic
dtnsim.node[6].app.enable = true
dtnsim.node[6].app.bundlesNumber = "1,1,1,1,1,1,1,1,1,1,1,1,1,1,1,1,1,1,1,1,1,1,1,1,1,1,1,1,1,1,1,1,1,1,1,1,1,1,1,1,1,1,1,1,1,1,1,1,1,1,1,1,1,1,1,1,1,1,1,1,1,1,1,1,1,1,1,1,1,1,1,1,1,1,1,1,1,1,1,1,1,1,1,1,1,1,1,1,1,1,1,1,1,1,1,1,1,1,1,1"
dtnsim.node[6].app.start = "5,7,8,1,18,10,13,19,3,1,17,16,13,8,3,15,14,2,5,20,17,13,18,4,6,2,2,16,9,15,1,19,1,20,15,18,6,15,9,3,10,19,8,3,2,12,10,12,4,2,18,7,13,1,4,6,1,4,13,13,6,16,13,2,2,6,13,14,16,6,15,5,17,13,8,10,4,19,19,18,14,13,4,4,15,17,8,19,10,18,7,3,7,7,3,10,18,3,10,5"
dtnsim.node[6].app.destinationEid = "66,70,159,48,82,153,105,61,2,175,75,73,41,17,145,155,84,4,156,52,16,103,175,143,54,33,112,28,105,125,21,131,112,65,10,164,97,148,55,77,28,59,23,13,45,21,75,103,121,3,67,172,138,161,36,174,101,3,16,8,146,91,141,53,100,117,32,165,130,26,18,164,119,106,3,5,45,117,67,129,149,139,119,147,19,14,85,89,124,69,10,149,90,15,21,84,106,93,117,145"
dtnsim.node[6].app.size = "100,200,50,100,500,500,500,50,50,100,500,200,100,500,50,100,100,200,50,200,50,100,50,500,50,100,100,50,100,50,100,50,500,100,500,500,500,500,50,200,200,50,500,100,50,100,50,200,50,200,500,100,50,500,200,50,200,50,500,200,50,200,100,50,500,50,200,100,50,50,100,100,500,100,200,200,50,100,500,50,200,500,500,500,50,200,50,100,50,200,200,50,200,200,50,50,100,500,100,500"
        # Node 7 random traffic
dtnsim.node[7].app.enable = true
dtnsim.node[7].app.bundlesNumber = "1,1,1,1,1,1,1,1,1,1,1,1,1,1,1,1,1,1,1,1,1,1,1,1,1,1,1,1,1,1,1,1,1,1,1,1,1,1,1,1,1,1,1,1,1,1,1,1,1,1,1,1,1,1,1,1,1,1,1,1,1,1,1,1,1,1,1,1,1,1,1,1,1,1,1,1,1,1,1,1,1,1,1,1,1,1,1,1,1,1,1,1,1,1,1,1,1,1,1,1"
dtnsim.node[7].app.start = "10,16,5,5,1,5,8,2,6,18,6,11,10,12,15,14,17,5,17,10,15,7,5,19,7,7,5,10,7,2,19,4,8,19,11,12,8,17,13,8,4,11,11,10,19,8,3,5,1,8,5,6,17,12,5,17,6,11,20,12,13,8,13,20,6,6,1,11,5,12,14,14,18,11,13,6,20,15,7,8,15,20,4,15,4,15,8,7,8,19,4,6,15,17,18,17,7,10,8,5"
dtnsim.node[7].app.destinationEid = "114,178,56,21,178,144,30,5,3,130,95,74,139,53,84,101,69,151,71,104,27,51,31,100,65,133,125,82,12,176,21,33,167,121,161,148,100,164,98,6,78,66,44,31,112,43,154,132,13,123,147,49,88,57,130,116,51,10,41,54,19,154,33,107,53,106,71,42,76,68,77,48,157,33,161,13,95,39,13,16,99,149,68,44,130,164,59,76,42,99,82,160,175,44,1,138,172,180,85,139"
dtnsim.node[7].app.size = "50,200,50,500,50,100,50,500,50,50,500,50,50,500,500,500,50,100,50,200,500,50,500,100,50,100,100,100,50,50,500,200,100,200,200,100,500,50,100,100,200,500,50,200,200,500,50,50,500,200,100,200,50,500,100,200,100,500,100,100,500,200,100,50,50,200,50,500,200,200,200,100,100,100,100,200,100,50,100,200,100,500,100,500,200,200,500,50,100,500,200,100,50,500,50,100,50,100,200,100"
        # Node 8 random traffic
dtnsim.node[8].app.enable = true
dtnsim.node[8].app.bundlesNumber = "1,1,1,1,1,1,1,1,1,1,1,1,1,1,1,1,1,1,1,1,1,1,1,1,1,1,1,1,1,1,1,1,1,1,1,1,1,1,1,1,1,1,1,1,1,1,1,1,1,1,1,1,1,1,1,1,1,1,1,1,1,1,1,1,1,1,1,1,1,1,1,1,1,1,1,1,1,1,1,1,1,1,1,1,1,1,1,1,1,1,1,1,1,1,1,1,1,1,1,1"
dtnsim.node[8].app.start = "6,8,13,13,1,14,16,9,8,6,20,11,7,6,19,3,11,13,2,16,11,9,7,5,3,11,16,1,19,17,7,6,8,6,20,20,10,19,13,14,3,5,15,20,12,11,14,10,14,8,16,8,18,8,11,9,13,14,11,9,20,4,16,7,8,3,9,15,6,5,10,4,11,2,13,6,3,2,18,19,19,2,20,12,4,8,19,3,1,19,2,4,15,20,4,19,2,12,9,19"
dtnsim.node[8].app.destinationEid = "40,26,128,41,173,167,11,38,29,100,140,166,71,123,18,57,128,152,57,136,118,159,35,129,20,27,167,12,145,6,142,20,39,164,93,86,137,44,38,43,23,162,142,98,73,2,151,94,105,124,49,160,25,77,63,48,35,133,50,95,135,101,122,176,11,71,62,64,120,133,106,54,104,56,21,74,145,66,71,112,46,161,76,7,9,1,60,49,12,118,18,135,44,117,59,72,39,45,174,97"
dtnsim.node[8].app.size = "500,500,500,500,50,50,50,100,50,200,200,50,200,100,500,500,500,100,500,50,500,200,50,200,500,500,50,500,500,100,50,50,200,200,50,50,50,200,50,500,50,200,200,200,50,100,100,100,100,500,100,50,100,50,200,500,200,100,200,200,200,50,50,50,50,100,50,100,200,100,100,50,200,50,50,50,500,100,50,50,50,200,50,200,500,100,50,500,100,200,200,500,500,100,50,500,500,500,200,500"
        # Node 9 random traffic
dtnsim.node[9].app.enable = true
dtnsim.node[9].app.bundlesNumber = "1,1,1,1,1,1,1,1,1,1,1,1,1,1,1,1,1,1,1,1,1,1,1,1,1,1,1,1,1,1,1,1,1,1,1,1,1,1,1,1,1,1,1,1,1,1,1,1,1,1,1,1,1,1,1,1,1,1,1,1,1,1,1,1,1,1,1,1,1,1,1,1,1,1,1,1,1,1,1,1,1,1,1,1,1,1,1,1,1,1,1,1,1,1,1,1,1,1,1,1"
dtnsim.node[9].app.start = "16,17,2,20,8,15,13,2,6,1,20,6,15,13,2,2,16,13,12,13,18,4,7,16,12,19,11,14,15,13,17,14,18,9,18,8,5,2,15,6,1,6,9,12,2,12,15,12,3,18,16,14,14,17,18,3,2,10,3,13,9,20,8,7,19,17,4,12,19,12,2,20,2,15,8,4,19,1,9,17,7,9,15,15,5,17,11,20,11,8,5,13,2,19,12,15,10,2,15,16"
dtnsim.node[9].app.destinationEid = "111,5,101,37,41,124,35,3,147,162,149,85,162,166,113,76,4,52,90,20,100,116,2,140,81,41,159,157,162,17,71,53,156,73,36,26,48,94,158,18,89,129,102,158,99,145,94,152,140,3,79,84,94,151,31,107,97,45,75,56,28,7,178,84,59,75,35,58,29,28,85,72,8,120,3,79,134,113,58,40,107,52,96,86,90,136,153,161,97,173,167,122,164,91,105,150,13,112,15,111"
dtnsim.node[9].app.size = "100,200,50,200,200,50,100,200,200,500,50,50,100,50,500,100,100,100,100,100,50,200,200,50,50,50,500,200,100,50,100,200,200,200,200,50,100,500,500,500,500,200,500,200,100,200,100,50,200,100,200,50,50,100,500,200,100,50,200,100,100,50,50,500,50,100,50,500,500,50,200,500,200,100,50,100,200,100,500,50,50,200,500,200,100,50,200,200,200,50,100,500,100,50,500,100,500,200,200,50"
        # Node 10 random traffic
dtnsim.node[10].app.enable = true
dtnsim.node[10].app.bundlesNumber = "1,1,1,1,1,1,1,1,1,1,1,1,1,1,1,1,1,1,1,1,1,1,1,1,1,1,1,1,1,1,1,1,1,1,1,1,1,1,1,1,1,1,1,1,1,1,1,1,1,1,1,1,1,1,1,1,1,1,1,1,1,1,1,1,1,1,1,1,1,1,1,1,1,1,1,1,1,1,1,1,1,1,1,1,1,1,1,1,1,1,1,1,1,1,1,1,1,1,1,1"
dtnsim.node[10].app.start = "20,19,12,13,9,11,4,17,12,5,12,15,13,9,4,10,5,12,10,9,18,1,12,9,7,13,13,15,1,19,10,7,1,19,1,14,1,20,17,15,16,18,4,14,16,16,15,15,5,9,13,5,18,20,5,12,8,18,8,4,2,4,19,3,13,17,5,3,8,3,3,14,18,15,18,9,12,18,16,7,20,3,15,6,10,15,9,6,6,17,10,10,1,8,2,5,9,8,13,9"
dtnsim.node[10].app.destinationEid = "137,99,125,121,50,2,130,26,165,16,35,52,119,178,87,59,154,110,62,111,175,144,121,13,151,156,172,169,8,141,136,96,72,37,70,180,118,130,61,44,103,99,129,40,11,37,87,130,137,109,8,38,173,100,140,40,7,113,58,75,129,82,126,153,149,157,57,54,124,104,118,50,137,174,90,152,59,136,60,12,103,180,109,154,23,8,15,24,50,132,104,166,149,27,68,54,78,81,27,31"
dtnsim.node[10].app.size = "100,50,50,500,500,200,500,100,50,50,100,500,200,500,100,200,50,500,100,200,100,50,500,100,100,200,50,200,200,50,500,500,50,200,50,100,200,100,100,500,100,100,500,200,50,100,200,50,500,50,50,50,50,100,200,200,100,50,200,500,100,200,200,500,200,200,500,100,50,500,200,200,200,200,200,50,200,100,100,100,200,200,50,50,100,200,500,50,50,100,100,500,50,500,50,100,500,50,500,500"
        # Node 11 random traffic
dtnsim.node[11].app.enable = true
dtnsim.node[11].app.bundlesNumber = "1,1,1,1,1,1,1,1,1,1,1,1,1,1,1,1,1,1,1,1,1,1,1,1,1,1,1,1,1,1,1,1,1,1,1,1,1,1,1,1,1,1,1,1,1,1,1,1,1,1,1,1,1,1,1,1,1,1,1,1,1,1,1,1,1,1,1,1,1,1,1,1,1,1,1,1,1,1,1,1,1,1,1,1,1,1,1,1,1,1,1,1,1,1,1,1,1,1,1,1"
dtnsim.node[11].app.start = "11,19,10,8,3,16,4,5,6,2,5,12,5,1,20,5,11,11,14,8,3,6,4,10,5,15,15,8,2,11,20,7,2,6,7,14,13,10,19,5,13,10,13,6,7,11,15,4,11,7,2,10,2,15,5,1,19,12,8,9,1,15,14,8,14,11,10,5,11,20,2,20,13,20,12,18,17,14,11,16,6,5,13,6,3,12,7,12,15,5,11,2,12,1,5,3,12,12,3,12"
dtnsim.node[11].app.destinationEid = "56,142,80,6,142,1,73,24,65,45,107,74,150,54,172,3,112,26,72,144,25,15,77,27,19,70,100,136,47,174,95,144,51,43,153,175,114,105,102,68,15,158,17,146,157,156,62,111,154,155,147,63,117,89,138,161,31,170,36,68,49,126,148,113,38,77,73,93,74,138,67,36,68,145,84,81,140,80,100,131,20,110,23,90,170,121,76,13,72,116,61,101,96,3,176,176,63,69,147,44"
dtnsim.node[11].app.size = "50,50,500,500,50,100,100,500,50,100,500,100,50,50,50,50,200,200,50,100,100,100,50,50,500,200,100,100,100,200,500,50,200,500,500,200,50,500,50,50,200,200,50,100,500,500,50,500,50,500,100,200,200,500,100,100,200,100,200,500,50,50,50,50,50,100,500,100,200,500,50,100,50,200,100,50,50,100,500,200,50,50,200,50,500,200,200,100,500,50,50,500,200,200,100,100,200,500,200,100"
        # Node 12 random traffic
dtnsim.node[12].app.enable = true
dtnsim.node[12].app.bundlesNumber = "1,1,1,1,1,1,1,1,1,1,1,1,1,1,1,1,1,1,1,1,1,1,1,1,1,1,1,1,1,1,1,1,1,1,1,1,1,1,1,1,1,1,1,1,1,1,1,1,1,1,1,1,1,1,1,1,1,1,1,1,1,1,1,1,1,1,1,1,1,1,1,1,1,1,1,1,1,1,1,1,1,1,1,1,1,1,1,1,1,1,1,1,1,1,1,1,1,1,1,1"
dtnsim.node[12].app.start = "14,15,16,9,4,16,20,20,4,11,17,11,20,5,20,18,1,14,10,18,10,4,4,15,8,17,5,12,11,18,4,3,2,7,9,14,11,20,1,3,9,9,16,8,16,4,18,15,19,5,6,12,13,19,19,2,1,9,6,20,6,5,18,3,18,6,5,8,20,3,12,11,4,17,18,11,12,19,6,17,6,5,20,10,10,16,8,17,17,14,6,15,17,9,2,14,2,18,14,11"
dtnsim.node[12].app.destinationEid = "36,131,8,70,104,91,64,72,136,151,23,32,20,33,93,168,96,8,23,138,91,76,70,137,170,41,162,86,103,42,74,130,114,174,49,48,53,83,108,140,71,78,158,31,168,157,35,106,81,123,25,107,170,44,71,63,132,109,87,156,43,66,6,36,133,48,118,155,69,76,57,67,53,44,4,28,103,102,106,124,94,53,121,114,46,69,54,154,54,113,38,94,144,158,62,135,92,124,30,146"
dtnsim.node[12].app.size = "200,200,200,100,50,50,100,100,50,100,100,50,200,200,100,500,200,500,500,50,500,500,100,100,500,500,100,500,500,200,200,500,50,500,100,50,100,200,100,50,500,50,50,500,200,50,200,100,200,500,200,200,200,200,200,500,50,200,100,50,50,50,100,200,200,200,100,100,100,100,500,100,200,50,100,50,50,200,50,200,500,50,50,50,50,100,50,500,500,500,500,50,100,100,200,200,100,50,500,500"
        # Node 13 random traffic
dtnsim.node[13].app.enable = true
dtnsim.node[13].app.bundlesNumber = "1,1,1,1,1,1,1,1,1,1,1,1,1,1,1,1,1,1,1,1,1,1,1,1,1,1,1,1,1,1,1,1,1,1,1,1,1,1,1,1,1,1,1,1,1,1,1,1,1,1,1,1,1,1,1,1,1,1,1,1,1,1,1,1,1,1,1,1,1,1,1,1,1,1,1,1,1,1,1,1,1,1,1,1,1,1,1,1,1,1,1,1,1,1,1,1,1,1,1,1"
dtnsim.node[13].app.start = "7,9,11,10,19,11,7,13,9,3,2,8,1,20,9,14,13,8,14,3,18,16,17,12,7,19,8,19,17,8,12,15,14,16,14,16,11,19,15,17,2,4,6,13,3,6,2,13,10,12,6,9,9,6,3,13,2,4,7,20,4,6,14,5,1,3,9,19,11,16,15,2,3,2,12,11,18,7,9,18,20,19,14,17,8,17,13,11,17,6,18,8,1,17,17,4,6,5,16,1"
dtnsim.node[13].app.destinationEid = "54,118,105,91,103,148,14,158,104,107,95,143,150,101,147,77,24,123,129,78,158,92,134,48,76,18,12,121,23,20,141,74,28,45,26,58,66,109,123,40,126,77,65,161,107,52,97,78,56,116,18,37,29,30,42,119,134,135,88,27,56,134,55,89,63,136,83,24,42,33,78,172,62,22,45,36,44,97,66,44,149,71,3,165,112,168,25,143,179,126,53,29,55,111,12,11,159,44,87,84"
dtnsim.node[13].app.size = "200,50,500,200,200,200,100,200,500,500,50,200,50,50,100,200,50,200,100,50,50,200,200,500,50,100,100,100,100,50,100,100,50,50,500,500,500,200,100,50,200,500,500,500,100,200,500,200,500,200,100,100,100,500,200,50,200,500,50,200,50,50,100,50,500,50,500,500,200,50,500,500,50,100,500,50,200,500,200,50,500,500,100,500,500,500,500,50,100,100,100,200,100,500,200,500,500,500,100,50"
        # Node 14 random traffic
dtnsim.node[14].app.enable = true
dtnsim.node[14].app.bundlesNumber = "1,1,1,1,1,1,1,1,1,1,1,1,1,1,1,1,1,1,1,1,1,1,1,1,1,1,1,1,1,1,1,1,1,1,1,1,1,1,1,1,1,1,1,1,1,1,1,1,1,1,1,1,1,1,1,1,1,1,1,1,1,1,1,1,1,1,1,1,1,1,1,1,1,1,1,1,1,1,1,1,1,1,1,1,1,1,1,1,1,1,1,1,1,1,1,1,1,1,1,1"
dtnsim.node[14].app.start = "15,14,5,6,10,13,4,14,7,20,18,4,4,9,4,14,10,8,4,7,2,3,14,9,18,17,10,6,20,3,8,7,2,20,13,5,6,7,2,13,12,19,14,17,9,10,9,2,20,8,20,12,19,10,6,10,2,6,14,10,3,11,1,7,8,18,11,9,7,4,7,18,14,1,6,17,12,17,7,16,6,19,14,16,16,15,3,16,16,11,8,16,11,18,11,18,3,3,13,11"
dtnsim.node[14].app.destinationEid = "63,123,59,129,164,22,12,120,138,120,105,120,165,178,16,106,100,157,24,115,101,70,8,53,4,116,130,105,95,105,150,2,153,89,64,86,55,179,165,81,63,60,61,35,127,75,116,134,96,67,100,13,51,51,177,3,84,31,4,36,24,70,119,39,148,172,92,115,4,156,19,25,104,85,113,88,58,46,84,39,130,96,137,100,175,11,88,8,109,67,180,66,180,48,98,68,121,178,27,118"
dtnsim.node[14].app.size = "100,200,500,200,100,200,50,100,100,100,50,100,100,50,100,50,100,50,200,200,200,200,100,50,200,50,200,100,50,50,50,200,50,500,50,100,200,500,50,200,500,500,50,100,500,50,500,100,50,500,50,500,50,200,200,50,200,100,200,50,200,500,200,50,200,200,200,500,500,500,100,200,50,50,200,50,200,100,50,100,50,100,50,50,100,200,50,50,500,50,200,500,500,50,100,500,50,50,100,100"
        # Node 15 random traffic
dtnsim.node[15].app.enable = true
dtnsim.node[15].app.bundlesNumber = "1,1,1,1,1,1,1,1,1,1,1,1,1,1,1,1,1,1,1,1,1,1,1,1,1,1,1,1,1,1,1,1,1,1,1,1,1,1,1,1,1,1,1,1,1,1,1,1,1,1,1,1,1,1,1,1,1,1,1,1,1,1,1,1,1,1,1,1,1,1,1,1,1,1,1,1,1,1,1,1,1,1,1,1,1,1,1,1,1,1,1,1,1,1,1,1,1,1,1,1"
dtnsim.node[15].app.start = "4,15,8,10,2,9,19,15,5,18,8,6,5,5,2,8,11,6,14,11,15,5,2,15,14,1,11,8,14,9,12,12,2,8,7,12,11,13,3,17,2,1,4,9,10,11,16,10,12,5,13,5,8,5,8,17,2,18,12,8,3,19,4,11,19,13,17,5,20,5,14,6,18,4,14,5,10,15,17,16,9,7,3,9,4,18,15,1,6,8,10,7,10,5,12,18,4,13,15,17"
dtnsim.node[15].app.destinationEid = "113,79,27,102,34,30,42,160,132,37,129,76,168,11,28,111,65,14,120,66,31,100,86,114,129,72,95,9,137,87,87,16,151,179,94,114,30,43,57,156,9,160,113,143,121,115,75,172,68,38,93,82,78,4,6,64,36,76,116,62,30,25,71,150,41,126,37,141,26,79,164,129,16,78,164,160,70,125,26,40,6,61,150,56,126,20,58,147,165,20,40,79,71,145,72,24,67,134,38,87"
dtnsim.node[15].app.size = "100,50,500,50,50,200,200,500,50,100,200,100,200,200,200,100,200,100,50,50,200,500,50,200,100,100,500,200,500,500,50,500,50,50,500,100,200,50,200,100,200,200,200,200,500,100,100,200,50,500,500,100,500,200,200,50,100,100,500,500,50,100,50,50,100,200,50,200,200,100,500,200,50,200,100,50,100,50,500,100,100,100,200,100,200,100,50,100,500,200,500,100,500,200,500,50,50,500,200,100"
        # Node 16 random traffic
dtnsim.node[16].app.enable = true
dtnsim.node[16].app.bundlesNumber = "1,1,1,1,1,1,1,1,1,1,1,1,1,1,1,1,1,1,1,1,1,1,1,1,1,1,1,1,1,1,1,1,1,1,1,1,1,1,1,1,1,1,1,1,1,1,1,1,1,1,1,1,1,1,1,1,1,1,1,1,1,1,1,1,1,1,1,1,1,1,1,1,1,1,1,1,1,1,1,1,1,1,1,1,1,1,1,1,1,1,1,1,1,1,1,1,1,1,1,1"
dtnsim.node[16].app.start = "14,20,4,3,7,15,7,3,6,4,5,11,14,12,12,17,4,18,2,13,13,1,14,16,9,15,10,3,2,9,8,15,4,7,20,3,2,8,7,3,8,9,5,8,13,3,2,20,5,8,15,7,4,13,15,3,6,12,20,10,4,3,17,7,11,16,13,11,1,5,5,5,8,3,13,1,20,16,7,20,4,18,15,1,11,16,19,1,17,16,14,3,9,9,6,7,15,13,5,18"
dtnsim.node[16].app.destinationEid = "135,173,93,115,143,100,46,127,71,70,100,117,128,125,177,20,28,63,88,49,2,149,162,88,63,154,34,167,64,113,162,123,26,28,95,108,60,79,171,72,97,38,48,39,164,43,88,66,7,172,25,99,49,21,126,145,65,99,108,62,87,63,62,43,64,128,82,121,36,54,2,78,25,115,139,14,74,159,18,83,162,101,139,59,159,168,33,100,107,44,123,74,56,72,73,25,53,98,7,27"
dtnsim.node[16].app.size = "50,100,100,200,200,100,200,500,500,100,50,50,500,200,50,500,50,100,100,200,500,500,500,50,200,500,200,50,200,500,50,200,200,500,100,200,200,50,100,100,100,200,500,50,100,50,50,500,50,50,500,500,100,100,200,200,500,50,100,500,100,500,500,100,200,200,500,50,100,500,500,200,100,500,100,500,500,200,500,100,100,100,100,200,200,500,500,100,200,200,500,100,500,100,50,500,500,100,500,200"
        # Node 17 random traffic
dtnsim.node[17].app.enable = true
dtnsim.node[17].app.bundlesNumber = "1,1,1,1,1,1,1,1,1,1,1,1,1,1,1,1,1,1,1,1,1,1,1,1,1,1,1,1,1,1,1,1,1,1,1,1,1,1,1,1,1,1,1,1,1,1,1,1,1,1,1,1,1,1,1,1,1,1,1,1,1,1,1,1,1,1,1,1,1,1,1,1,1,1,1,1,1,1,1,1,1,1,1,1,1,1,1,1,1,1,1,1,1,1,1,1,1,1,1,1"
dtnsim.node[17].app.start = "19,18,17,19,11,3,17,8,3,15,16,20,6,12,2,20,10,19,14,8,6,11,6,2,8,10,14,1,16,17,1,2,5,17,18,12,6,8,18,13,16,9,18,1,6,10,17,5,2,15,13,15,13,13,20,19,5,1,17,17,5,1,10,11,15,6,12,15,14,5,6,7,2,8,9,3,8,11,7,8,17,12,6,5,2,8,6,13,17,5,12,11,11,1,18,7,8,10,5,3"
dtnsim.node[17].app.destinationEid = "13,21,143,130,115,88,122,34,23,54,9,154,146,55,66,177,116,170,120,46,31,148,158,57,98,46,63,2,121,162,16,178,158,68,33,144,98,3,166,57,58,130,21,33,108,145,1,95,116,37,49,170,170,98,65,170,149,153,77,114,101,10,107,34,42,165,178,99,136,37,46,120,141,23,52,123,154,113,33,91,68,162,167,112,41,83,120,63,23,135,98,61,52,12,131,153,158,26,57,92"
dtnsim.node[17].app.size = "50,100,100,500,200,100,200,100,500,100,200,50,100,100,50,100,200,100,200,50,100,100,200,100,500,500,100,50,100,50,100,100,50,500,50,500,100,50,100,200,200,500,200,100,50,100,500,500,500,500,100,500,100,50,50,50,200,50,50,500,50,50,100,50,500,50,200,200,500,100,100,200,200,200,500,500,50,50,500,50,50,50,200,200,500,200,100,100,50,200,200,50,500,500,50,500,50,50,200,50"
        # Node 18 random traffic
dtnsim.node[18].app.enable = true
dtnsim.node[18].app.bundlesNumber = "1,1,1,1,1,1,1,1,1,1,1,1,1,1,1,1,1,1,1,1,1,1,1,1,1,1,1,1,1,1,1,1,1,1,1,1,1,1,1,1,1,1,1,1,1,1,1,1,1,1,1,1,1,1,1,1,1,1,1,1,1,1,1,1,1,1,1,1,1,1,1,1,1,1,1,1,1,1,1,1,1,1,1,1,1,1,1,1,1,1,1,1,1,1,1,1,1,1,1,1"
dtnsim.node[18].app.start = "17,3,20,14,20,13,6,11,12,9,12,6,4,4,16,7,9,19,4,11,4,18,2,10,2,6,11,20,10,1,9,18,9,8,3,5,17,6,1,10,3,6,15,4,17,14,3,12,18,13,9,2,7,16,10,12,2,16,11,10,17,8,19,19,20,7,19,20,13,17,17,1,17,8,17,17,17,20,18,10,6,9,18,6,9,11,6,19,16,4,7,20,19,18,11,4,19,11,4,16"
dtnsim.node[18].app.destinationEid = "36,106,13,96,119,50,45,140,22,171,164,114,102,114,167,108,112,119,143,24,39,127,49,111,14,81,142,76,51,33,82,46,98,139,138,54,28,87,83,140,43,67,115,24,145,66,11,111,30,27,15,27,115,15,160,160,157,3,10,155,148,136,88,29,53,162,147,78,155,171,13,133,141,176,138,177,77,180,179,82,114,151,102,123,147,160,35,175,100,71,36,94,168,31,180,121,152,178,36,148"
dtnsim.node[18].app.size = "100,100,100,200,500,100,200,500,200,50,100,200,100,500,200,100,100,100,50,100,50,50,500,50,100,100,500,100,100,100,200,50,50,200,200,200,500,50,500,200,100,50,50,200,200,200,100,100,50,100,200,200,100,50,500,100,200,500,500,100,500,50,200,100,500,500,200,50,50,200,100,200,200,200,500,100,200,500,200,100,500,100,100,200,100,100,50,500,100,500,100,200,100,100,500,200,500,200,500,50"
        # Node 19 random traffic
dtnsim.node[19].app.enable = true
dtnsim.node[19].app.bundlesNumber = "1,1,1,1,1,1,1,1,1,1,1,1,1,1,1,1,1,1,1,1,1,1,1,1,1,1,1,1,1,1,1,1,1,1,1,1,1,1,1,1,1,1,1,1,1,1,1,1,1,1,1,1,1,1,1,1,1,1,1,1,1,1,1,1,1,1,1,1,1,1,1,1,1,1,1,1,1,1,1,1,1,1,1,1,1,1,1,1,1,1,1,1,1,1,1,1,1,1,1,1"
dtnsim.node[19].app.start = "17,15,9,11,11,18,15,14,3,5,11,9,4,18,3,6,16,16,19,14,15,19,11,9,3,8,12,13,13,2,10,10,14,2,6,9,11,4,10,19,6,9,18,14,8,19,15,13,8,3,8,5,17,7,12,18,19,9,4,19,7,5,1,11,7,14,3,5,5,3,16,13,7,9,19,17,18,11,9,13,4,7,5,17,15,5,17,17,18,9,17,20,5,4,19,16,7,12,20,13"
dtnsim.node[19].app.destinationEid = "160,97,79,51,4,154,107,38,4,17,175,119,99,48,54,60,63,67,60,64,140,123,150,34,180,65,117,162,86,96,157,127,98,172,69,154,14,32,121,47,22,88,82,78,11,144,70,43,79,10,100,18,92,171,67,174,63,179,124,109,57,129,80,179,26,29,113,137,59,180,12,59,82,105,163,12,77,17,173,134,140,104,59,109,28,55,123,168,155,83,73,112,43,161,147,137,115,62,104,158"
dtnsim.node[19].app.size = "200,50,50,200,500,500,200,50,100,200,100,50,500,100,200,200,50,500,50,200,500,50,500,50,500,500,500,100,200,500,100,200,100,50,100,100,100,50,100,100,50,200,100,50,200,500,50,500,100,500,200,100,100,100,500,500,200,500,200,100,100,500,50,50,50,100,100,500,50,100,200,200,100,200,200,500,200,200,500,50,500,100,200,500,500,100,500,500,50,100,200,500,200,500,50,50,50,200,200,500"
        # Node 20 random traffic
dtnsim.node[20].app.enable = true
dtnsim.node[20].app.bundlesNumber = "1,1,1,1,1,1,1,1,1,1,1,1,1,1,1,1,1,1,1,1,1,1,1,1,1,1,1,1,1,1,1,1,1,1,1,1,1,1,1,1,1,1,1,1,1,1,1,1,1,1,1,1,1,1,1,1,1,1,1,1,1,1,1,1,1,1,1,1,1,1,1,1,1,1,1,1,1,1,1,1,1,1,1,1,1,1,1,1,1,1,1,1,1,1,1,1,1,1,1,1"
dtnsim.node[20].app.start = "14,18,6,6,4,12,7,11,4,3,18,19,5,20,19,14,13,3,19,10,11,10,13,14,19,3,18,18,7,14,10,12,20,5,9,7,7,11,4,16,20,8,12,4,10,15,7,19,10,2,8,9,10,19,18,6,16,15,15,7,13,15,8,10,5,15,19,16,9,17,7,18,17,20,8,8,5,15,7,12,5,11,12,7,15,5,14,7,12,3,14,2,11,7,11,14,13,12,19,18"
dtnsim.node[20].app.destinationEid = "51,85,44,41,115,167,8,139,48,96,78,63,3,100,6,9,167,178,25,119,111,163,36,119,139,142,41,59,104,130,104,138,36,40,70,83,150,148,136,84,120,14,5,119,86,117,113,23,16,151,161,12,121,170,9,38,113,112,135,155,145,69,154,10,28,158,107,158,103,129,103,6,18,22,96,76,135,134,105,93,84,105,94,95,176,63,75,107,40,56,35,38,56,82,10,79,166,121,169,66"
dtnsim.node[20].app.size = "500,500,50,50,500,500,500,500,100,50,500,50,500,200,50,200,100,50,200,200,100,200,200,500,50,500,500,200,500,100,100,500,100,50,100,50,200,200,100,50,200,50,200,200,50,200,100,500,100,50,50,200,200,200,500,100,100,200,500,100,50,50,100,50,200,500,500,100,500,500,50,100,500,100,100,500,50,500,200,100,50,100,500,500,100,50,500,500,500,50,200,100,100,200,100,500,100,100,50,200"
        # Node 21 random traffic
dtnsim.node[21].app.enable = true
dtnsim.node[21].app.bundlesNumber = "1,1,1,1,1,1,1,1,1,1,1,1,1,1,1,1,1,1,1,1,1,1,1,1,1,1,1,1,1,1,1,1,1,1,1,1,1,1,1,1,1,1,1,1,1,1,1,1,1,1,1,1,1,1,1,1,1,1,1,1,1,1,1,1,1,1,1,1,1,1,1,1,1,1,1,1,1,1,1,1,1,1,1,1,1,1,1,1,1,1,1,1,1,1,1,1,1,1,1,1"
dtnsim.node[21].app.start = "4,16,16,5,4,17,1,2,9,10,9,4,16,2,20,7,18,9,4,1,2,13,11,19,15,18,12,20,17,9,5,18,6,20,16,2,2,3,18,8,6,10,11,5,11,20,10,17,4,12,20,12,14,6,1,14,9,7,12,1,4,17,1,6,7,5,10,1,20,3,7,12,8,10,6,5,15,17,11,3,16,15,2,3,13,17,13,6,12,11,3,3,2,2,17,9,18,9,14,16"
dtnsim.node[21].app.destinationEid = "180,148,73,82,176,132,88,171,161,110,160,39,150,155,27,16,70,149,74,108,145,70,114,54,11,115,113,23,97,140,150,24,148,12,150,150,31,130,33,9,108,136,87,158,78,121,89,75,8,150,96,11,176,46,17,32,93,100,34,136,70,59,108,117,153,11,178,63,56,152,77,151,156,97,63,50,90,92,124,25,50,112,120,55,49,93,12,33,177,16,9,110,30,58,53,11,168,41,145,56"
dtnsim.node[21].app.size = "500,50,500,100,500,500,500,200,200,500,100,200,50,50,200,100,500,50,50,100,500,100,100,500,50,500,100,100,50,50,500,500,100,500,500,100,500,500,500,50,100,100,200,50,100,500,50,500,50,200,500,500,200,200,500,500,50,200,500,200,200,500,200,100,50,500,100,50,500,500,200,500,500,100,50,100,50,100,50,500,500,200,50,100,50,50,500,100,500,500,500,50,500,200,100,500,500,500,500,100"
        # Node 22 random traffic
dtnsim.node[22].app.enable = true
dtnsim.node[22].app.bundlesNumber = "1,1,1,1,1,1,1,1,1,1,1,1,1,1,1,1,1,1,1,1,1,1,1,1,1,1,1,1,1,1,1,1,1,1,1,1,1,1,1,1,1,1,1,1,1,1,1,1,1,1,1,1,1,1,1,1,1,1,1,1,1,1,1,1,1,1,1,1,1,1,1,1,1,1,1,1,1,1,1,1,1,1,1,1,1,1,1,1,1,1,1,1,1,1,1,1,1,1,1,1"