[General]
network = src.dtnsim										
repeat = 1
allow-object-stealing-on-deletion = true

# Simulation end time
sim-time-limit = 84600s

# Nodes quantity (identifiers (EiDs) matches their index, EiD=0 is ignored)			
dtnsim.nodesNumber = 120
dtnsim.node[*].icon = "satellite"

# Nodes's failure rates
dtnsim.node[*].fault.enable = true
dtnsim.node[*].fault.meanTTF = 190s
dtnsim.node[*].fault.meanTTR = 10s

# Mobility
dtnsim.node[*].hasMobility = true
dtnsim.node[*].noradModule.satIndex = parentIndex()
dtnsim.node[*].noradModule.satName = "sat"
**.updateInterval = 20s
**.numOfSats = 120
**.satPerPlane = 10
**.altitude = 540
**.planes = 12
**.phaseOffset = 7

dtnsim.node[*].dtn.routing = "antop"
dtnsim.node[*].dtn.printRoutingDebug = true

# --- Random Traffic Configuration ---
# Node 1 random traffic
dtnsim.node[1].app.enable = true
dtnsim.node[1].app.bundlesNumber = "1,1,1,1,1,1,1,1,1,1,1,1,1,1,1,1,1,1,1,1,1,1,1,1,1,1,1,1,1,1,1,1,1,1,1,1,1,1,1,1,1,1,1,1,1,1,1,1,1,1,1,1,1,1,1,1,1,1,1,1,1,1,1,1,1,1,1,1,1,1,1,1,1,1,1,1,1,1,1,1,1,1,1,1,1,1,1,1,1,1,1,1,1,1,1,1,1,1,1,1"
dtnsim.node[1].app.start = "15,5,12,20,15,11,20,16,12,4,13,15,9,17,8,18,12,18,11,5,16,17,17,6,15,16,10,11,20,7,17,13,15,4,9,12,6,3,18,13,5,11,6,2,12,15,1,14,9,15,5,5,9,13,18,3,18,7,8,5,2,2,2,17,14,15,5,14,1,10,3,3,13,16,20,3,10,2,2,10,17,11,19,9,9,17,5,2,16,12,2,20,11,5,14,2,11,15,8,3"
dtnsim.node[1].app.destinationEid = "63,89,7,24,48,27,40,48,100,62,31,40,95,84,56,62,52,54,53,45,48,98,116,6,55,94,113,55,84,49,98,93,4,6,47,61,75,15,99,74,90,101,87,19,48,120,58,115,110,96,41,90,36,25,64,17,80,35,15,11,27,91,89,43,68,13,2,9,73,120,24,21,37,112,68,21,51,87,119,116,21,37,96,97,20,89,16,112,38,39,84,57,43,84,86,120,11,57,114,71"
dtnsim.node[1].app.size = "50,500,50,50,500,50,500,50,200,100,500,200,100,100,100,50,50,200,200,500,100,200,500,50,100,50,500,200,50,200,200,200,200,50,50,50,100,200,200,50,500,50,500,200,100,100,500,500,50,500,50,100,50,50,50,100,500,50,200,500,500,500,500,500,200,200,200,100,500,100,500,100,500,200,200,50,50,500,50,50,500,500,500,200,200,100,100,50,200,200,50,50,200,500,200,100,500,100,100,200"
        # Node 2 random traffic
dtnsim.node[2].app.enable = true
dtnsim.node[2].app.bundlesNumber = "1,1,1,1,1,1,1,1,1,1,1,1,1,1,1,1,1,1,1,1,1,1,1,1,1,1,1,1,1,1,1,1,1,1,1,1,1,1,1,1,1,1,1,1,1,1,1,1,1,1,1,1,1,1,1,1,1,1,1,1,1,1,1,1,1,1,1,1,1,1,1,1,1,1,1,1,1,1,1,1,1,1,1,1,1,1,1,1,1,1,1,1,1,1,1,1,1,1,1,1"
dtnsim.node[2].app.start = "15,13,8,10,13,9,6,17,1,18,19,2,11,11,1,6,14,12,15,13,19,7,15,3,6,8,1,13,11,12,8,16,2,9,1,12,15,19,12,13,6,8,17,7,15,3,1,9,18,13,9,14,19,6,16,11,12,18,15,17,11,13,8,15,12,9,20,2,5,15,13,18,13,10,18,18,5,6,6,16,1,19,12,2,4,7,8,4,16,11,6,11,16,20,14,3,6,18,13,12"
dtnsim.node[2].app.destinationEid = "39,63,17,119,30,43,39,39,72,29,15,40,26,44,58,62,51,13,53,36,52,54,12,89,17,36,81,1,75,17,42,32,22,35,37,24,35,113,108,105,104,11,9,48,10,105,46,49,4,88,118,96,29,100,73,91,13,69,72,38,50,107,99,96,65,66,103,13,60,115,76,44,6,25,78,6,10,69,39,20,99,75,15,88,6,90,22,54,76,92,18,18,22,115,113,99,44,68,25,39"
dtnsim.node[2].app.size = "100,50,50,500,200,200,100,500,500,200,50,100,500,500,200,100,50,200,100,50,100,100,200,50,50,100,200,50,100,200,200,200,500,50,100,100,500,100,200,200,50,500,200,500,100,500,500,100,100,50,200,200,200,100,500,200,100,100,100,500,50,200,500,200,100,500,200,200,500,100,200,100,100,100,100,50,100,500,50,100,50,200,200,500,50,50,50,200,100,500,50,200,100,50,200,50,50,500,500,200"
        # Node 3 random traffic
dtnsim.node[3].app.enable = true
dtnsim.node[3].app.bundlesNumber = "1,1,1,1,1,1,1,1,1,1,1,1,1,1,1,1,1,1,1,1,1,1,1,1,1,1,1,1,1,1,1,1,1,1,1,1,1,1,1,1,1,1,1,1,1,1,1,1,1,1,1,1,1,1,1,1,1,1,1,1,1,1,1,1,1,1,1,1,1,1,1,1,1,1,1,1,1,1,1,1,1,1,1,1,1,1,1,1,1,1,1,1,1,1,1,1,1,1,1,1"
dtnsim.node[3].app.start = "6,15,4,20,7,11,18,11,1,14,20,6,5,7,12,11,18,15,12,6,5,9,4,7,14,19,4,9,13,17,8,16,8,18,14,14,8,10,13,3,20,4,8,14,8,5,5,2,7,1,16,19,19,2,2,10,17,19,19,3,8,14,7,16,1,18,1,8,19,1,12,8,11,20,12,9,20,15,16,2,18,20,17,20,10,2,13,2,16,19,11,4,4,18,14,3,19,1,7,6"
dtnsim.node[3].app.destinationEid = "67,43,59,55,27,51,80,30,77,75,63,118,75,99,88,38,6,49,27,85,75,29,34,90,38,17,39,28,99,95,112,13,13,76,39,116,51,73,2,80,65,94,13,5,12,86,47,105,25,120,45,32,62,18,57,66,64,57,72,2,27,107,6,94,30,61,116,107,68,58,5,41,46,119,84,60,42,33,81,108,71,78,73,28,108,76,40,109,66,108,6,18,94,78,83,63,114,35,47,45"
dtnsim.node[3].app.size = "500,100,100,500,50,50,500,100,100,50,500,50,500,200,200,100,500,100,200,50,500,100,50,500,500,100,50,50,50,100,500,500,200,100,200,500,100,100,50,50,200,500,500,50,50,200,50,50,50,200,500,50,500,100,500,500,100,100,100,100,100,500,200,500,50,100,100,50,100,500,500,200,50,200,100,500,500,200,200,500,200,50,100,200,100,500,100,100,100,50,200,200,100,100,200,100,200,50,50,200"
        # Node 4 random traffic
dtnsim.node[4].app.enable = true
dtnsim.node[4].app.bundlesNumber = "1,1,1,1,1,1,1,1,1,1,1,1,1,1,1,1,1,1,1,1,1,1,1,1,1,1,1,1,1,1,1,1,1,1,1,1,1,1,1,1,1,1,1,1,1,1,1,1,1,1,1,1,1,1,1,1,1,1,1,1,1,1,1,1,1,1,1,1,1,1,1,1,1,1,1,1,1,1,1,1,1,1,1,1,1,1,1,1,1,1,1,1,1,1,1,1,1,1,1,1"
dtnsim.node[4].app.start = "16,2,2,6,5,12,6,18,9,9,17,5,16,15,16,13,13,17,16,19,15,20,2,15,2,20,17,20,6,3,12,7,8,12,20,2,10,4,14,10,20,8,8,19,16,8,1,10,10,8,8,14,6,2,15,9,19,10,11,13,15,17,14,6,3,20,4,8,6,12,2,15,7,7,12,6,5,3,20,3,20,14,9,20,18,8,13,12,10,9,1,8,9,18,5,20,17,3,9,5"
dtnsim.node[4].app.destinationEid = "108,80,99,95,18,13,94,116,119,95,110,97,11,20,120,44,8,62,17,6,53,18,98,49,10,65,11,39,52,22,92,81,91,94,18,22,57,45,113,99,65,7,19,51,76,87,61,7,70,31,77,53,2,91,47,117,86,14,86,7,93,47,98,39,113,32,46,59,113,54,9,90,89,12,53,79,35,33,30,48,105,85,14,107,105,96,38,37,83,10,23,62,32,10,58,102,28,83,35,3"
dtnsim.node[4].app.size = "200,50,500,100,50,50,200,200,100,500,100,500,50,500,200,200,200,50,100,200,100,200,100,500,200,100,100,200,500,200,200,100,100,500,100,100,200,500,50,200,50,500,500,100,50,50,200,200,200,500,200,500,50,200,500,50,50,50,500,100,50,500,50,100,500,200,500,50,50,200,100,100,50,500,100,50,100,200,100,500,500,200,100,500,500,500,50,200,500,500,100,200,500,200,50,100,100,200,100,50"
        # Node 5 random traffic
dtnsim.node[5].app.enable = true
dtnsim.node[5].app.bundlesNumber = "1,1,1,1,1,1,1,1,1,1,1,1,1,1,1,1,1,1,1,1,1,1,1,1,1,1,1,1,1,1,1,1,1,1,1,1,1,1,1,1,1,1,1,1,1,1,1,1,1,1,1,1,1,1,1,1,1,1,1,1,1,1,1,1,1,1,1,1,1,1,1,1,1,1,1,1,1,1,1,1,1,1,1,1,1,1,1,1,1,1,1,1,1,1,1,1,1,1,1,1"
dtnsim.node[5].app.start = "2,2,3,5,1,17,16,14,20,16,2,8,19,2,7,15,9,6,20,16,3,5,6,5,3,17,9,9,19,5,19,14,17,15,7,11,3,12,14,17,17,11,18,1,10,1,20,12,10,1,7,11,11,3,1,20,20,1,8,20,10,1,3,17,10,2,2,18,13,20,20,6,15,14,12,1,3,9,20,9,13,18,7,2,16,10,8,9,14,2,16,5,7,1,2,11,19,4,9,16"
dtnsim.node[5].app.destinationEid = "100,17,26,15,87,69,115,102,87,9,15,64,110,104,110,54,69,95,119,7,69,21,95,15,115,66,109,23,76,71,30,42,11,110,116,47,29,117,104,119,36,89,94,50,67,100,22,89,96,84,50,52,29,7,30,1,4,14,14,19,92,34,32,6,114,8,30,72,54,66,10,92,101,60,43,25,93,116,119,33,1,40,105,13,58,81,118,2,108,52,106,50,37,108,59,90,118,6,27,81"
dtnsim.node[5].app.size = "500,50,500,50,100,500,200,50,500,100,100,50,100,500,200,500,50,200,50,200,200,500,50,500,50,100,50,500,50,50,50,500,500,50,500,200,100,500,200,100,50,50,100,50,200,50,200,100,50,500,100,500,200,50,500,200,200,500,500,100,200,100,200,50,200,200,500,500,100,50,200,500,50,500,500,100,200,200,500,200,200,50,500,100,200,200,50,500,500,50,100,100,200,200,100,100,500,200,50,50"
        # Node 6 random traffic
dtnsim.node[6].app.enable = true
dtnsim.node[6].app.bundlesNumber = "1,1,1,1,1,1,1,1,1,1,1,1,1,1,1,1,1,1,1,1,1,1,1,1,1,1,1,1,1,1,1,1,1,1,1,1,1,1,1,1,1,1,1,1,1,1,1,1,1,1,1,1,1,1,1,1,1,1,1,1,1,1,1,1,1,1,1,1,1,1,1,1,1,1,1,1,1,1,1,1,1,1,1,1,1,1,1,1,1,1,1,1,1,1,1,1,1,1,1,1"
dtnsim.node[6].app.start = "13,16,17,8,1,17,20,14,7,4,10,12,3,14,5,3,19,8,1,1,17,2,14,8,13,8,20,2,12,14,3,12,2,8,14,10,14,4,13,10,19,4,2,17,19,19,11,8,2,19,15,16,18,16,17,1,10,5,4,18,17,4,12,7,2,14,5,1,2,18,1,1,9,7,6,5,14,15,20,17,13,10,7,5,10,19,14,10,14,13,6,14,3,8,7,11,18,4,10,14"
dtnsim.node[6].app.destinationEid = "13,88,106,72,54,53,41,68,96,119,101,63,81,19,2,13,28,117,96,109,119,73,94,93,87,120,83,18,112,87,50,15,98,58,56,54,86,107,56,42,29,53,75,116,103,35,52,28,46,46,111,88,37,57,79,117,44,115,35,106,16,43,95,10,25,58,36,36,42,83,30,99,28,1,24,18,80,100,3,83,45,60,116,111,105,113,104,114,72,38,48,59,19,36,12,99,103,109,84,28"
dtnsim.node[6].app.size = "500,100,200,200,500,500,500,100,500,100,50,200,200,100,500,100,200,500,500,100,200,500,500,100,500,200,200,200,200,500,500,50,100,100,50,200,100,200,200,100,100,50,50,200,500,200,100,200,50,200,200,500,100,200,200,50,100,100,100,100,500,100,500,50,500,200,50,500,500,500,200,200,200,100,50,50,200,100,200,200,100,200,500,100,50,100,100,100,200,200,200,50,100,50,100,100,500,100,200,200"
        # Node 7 random traffic
dtnsim.node[7].app.enable = true
dtnsim.node[7].app.bundlesNumber = "1,1,1,1,1,1,1,1,1,1,1,1,1,1,1,1,1,1,1,1,1,1,1,1,1,1,1,1,1,1,1,1,1,1,1,1,1,1,1,1,1,1,1,1,1,1,1,1,1,1,1,1,1,1,1,1,1,1,1,1,1,1,1,1,1,1,1,1,1,1,1,1,1,1,1,1,1,1,1,1,1,1,1,1,1,1,1,1,1,1,1,1,1,1,1,1,1,1,1,1"
dtnsim.node[7].app.start = "2,16,15,14,15,17,19,19,12,18,15,6,8,10,16,11,10,18,2,20,18,20,11,2,18,9,11,12,7,11,15,12,15,9,4,4,16,3,18,7,20,1,1,2,20,7,7,11,12,3,7,5,5,7,7,10,14,8,4,2,5,16,18,20,11,3,6,18,12,20,19,10,12,14,18,2,15,20,11,8,17,1,20,8,19,19,8,14,12,17,9,4,20,14,19,20,19,13,9,9"
dtnsim.node[7].app.destinationEid = "72,83,12,54,9,84,57,60,65,46,66,59,3,29,39,43,6,55,120,65,66,46,43,27,15,110,115,39,94,42,10,66,63,91,22,109,23,1,80,22,114,65,109,70,44,43,24,26,93,115,70,74,84,76,87,60,69,83,62,60,113,117,81,68,47,6,63,85,85,33,47,25,120,96,39,82,91,33,120,27,10,16,14,57,114,46,70,93,59,77,113,45,63,27,31,69,56,39,59,21"
dtnsim.node[7].app.size = "200,50,50,200,500,100,50,100,50,200,500,500,100,100,50,200,500,500,200,100,100,500,50,50,50,100,500,100,50,200,50,50,50,200,200,500,50,500,200,100,500,200,100,100,100,200,200,100,100,100,500,50,200,200,50,500,50,500,100,500,500,100,50,200,500,100,50,500,500,500,100,500,50,100,100,200,50,50,100,200,50,50,100,100,200,500,50,100,500,500,100,200,500,200,200,500,100,200,500,50"
        # Node 8 random traffic
dtnsim.node[8].app.enable = true
dtnsim.node[8].app.bundlesNumber = "1,1,1,1,1,1,1,1,1,1,1,1,1,1,1,1,1,1,1,1,1,1,1,1,1,1,1,1,1,1,1,1,1,1,1,1,1,1,1,1,1,1,1,1,1,1,1,1,1,1,1,1,1,1,1,1,1,1,1,1,1,1,1,1,1,1,1,1,1,1,1,1,1,1,1,1,1,1,1,1,1,1,1,1,1,1,1,1,1,1,1,1,1,1,1,1,1,1,1,1"
dtnsim.node[8].app.start = "9,9,2,14,10,5,17,17,4,8,10,18,11,3,20,9,14,20,6,15,14,13,6,6,7,6,1,14,17,7,16,9,17,10,17,16,12,19,10,1,13,14,4,16,1,12,18,13,7,20,17,3,17,12,20,11,20,18,10,16,10,18,17,9,19,10,8,9,14,3,17,19,13,8,2,19,4,5,11,16,20,11,12,6,2,16,1,4,12,11,4,16,15,4,11,15,2,4,17,5"
dtnsim.node[8].app.destinationEid = "87,35,54,119,112,58,27,21,20,70,88,7,85,29,71,31,46,68,75,89,30,71,63,18,71,64,24,111,50,61,85,96,25,36,20,39,14,23,73,52,53,30,34,89,86,72,7,25,86,120,60,108,62,23,7,13,120,104,42,1,50,110,26,16,12,58,59,38,3,67,63,113,53,111,64,9,14,55,51,104,20,108,39,92,99,105,5,49,10,71,77,28,85,69,12,88,93,92,97,45"
dtnsim.node[8].app.size = "500,100,500,200,200,50,500,200,500,200,200,50,50,500,100,50,200,100,100,50,100,50,100,50,500,50,50,50,500,200,100,50,100,50,100,100,50,100,200,100,50,50,100,100,50,200,100,100,200,50,50,200,100,500,100,200,100,500,500,100,100,100,100,200,500,100,100,500,500,50,500,500,100,100,200,500,500,200,100,500,100,500,200,500,200,100,200,50,100,50,100,500,500,500,200,100,200,100,500,500"
        # Node 9 random traffic
dtnsim.node[9].app.enable = true
dtnsim.node[9].app.bundlesNumber = "1,1,1,1,1,1,1,1,1,1,1,1,1,1,1,1,1,1,1,1,1,1,1,1,1,1,1,1,1,1,1,1,1,1,1,1,1,1,1,1,1,1,1,1,1,1,1,1,1,1,1,1,1,1,1,1,1,1,1,1,1,1,1,1,1,1,1,1,1,1,1,1,1,1,1,1,1,1,1,1,1,1,1,1,1,1,1,1,1,1,1,1,1,1,1,1,1,1,1,1"
dtnsim.node[9].app.start = "1,18,12,9,1,16,17,2,15,13,8,1,9,17,16,7,10,13,11,12,18,18,11,19,6,7,19,17,13,7,11,10,9,1,2,20,10,16,20,7,8,4,15,14,12,7,13,17,9,19,18,11,6,18,10,4,11,6,20,11,11,3,19,5,19,7,17,20,13,16,20,14,10,8,9,4,1,9,4,12,9,20,11,13,8,10,12,16,7,5,4,3,9,9,7,8,12,19,20,19"
dtnsim.node[9].app.destinationEid = "31,67,89,21,57,30,99,27,97,44,118,100,55,40,11,117,105,13,80,36,87,116,24,58,36,55,93,10,107,97,38,30,15,54,15,30,24,56,76,55,111,70,67,88,105,27,72,47,57,53,113,43,117,84,30,43,3,28,105,38,16,113,13,112,36,53,120,47,50,113,48,27,35,90,64,27,20,8,119,27,93,47,60,90,46,87,68,84,113,3,24,119,88,104,70,73,27,82,78,112"
dtnsim.node[9].app.size = "500,200,200,100,200,100,100,500,50,100,500,200,200,500,500,50,200,200,50,200,50,200,500,100,200,500,500,50,50,50,50,100,200,100,50,50,50,500,100,500,200,100,100,50,100,100,200,100,500,500,200,100,200,500,100,100,100,200,200,100,200,500,50,500,50,200,200,200,50,100,200,50,500,100,100,50,100,100,500,50,100,500,500,50,50,50,100,200,200,50,500,500,500,50,500,200,100,50,200,50"
        # Node 10 random traffic
dtnsim.node[10].app.enable = true
dtnsim.node[10].app.bundlesNumber = "1,1,1,1,1,1,1,1,1,1,1,1,1,1,1,1,1,1,1,1,1,1,1,1,1,1,1,1,1,1,1,1,1,1,1,1,1,1,1,1,1,1,1,1,1,1,1,1,1,1,1,1,1,1,1,1,1,1,1,1,1,1,1,1,1,1,1,1,1,1,1,1,1,1,1,1,1,1,1,1,1,1,1,1,1,1,1,1,1,1,1,1,1,1,1,1,1,1,1,1"
dtnsim.node[10].app.start = "9,17,16,19,15,1,9,13,4,8,6,10,3,8,7,1,5,15,18,17,17,3,5,11,1,15,2,17,6,13,1,9,5,2,3,17,17,19,11,1,20,14,9,19,8,15,7,10,20,3,15,20,8,13,9,6,9,12,12,18,13,14,15,5,20,20,9,11,13,12,1,14,1,11,12,8,2,1,11,20,16,6,14,3,12,4,16,2,8,15,2,11,10,8,10,5,19,8,16,17"
dtnsim.node[10].app.destinationEid = "23,85,54,56,49,66,63,71,18,22,115,58,48,108,48,16,86,97,25,90,29,12,49,109,22,73,21,90,2,75,82,35,65,70,92,46,75,13,94,9,116,66,54,101,72,101,12,21,119,2,108,27,107,36,16,22,17,7,84,85,116,12,71,12,42,106,89,23,66,13,42,74,72,71,38,73,67,32,47,100,28,45,37,44,59,11,27,47,44,45,50,71,52,74,38,51,59,97,32,67"
dtnsim.node[10].app.size = "200,100,100,200,50,100,100,200,500,200,100,50,200,100,50,100,200,100,50,100,100,500,100,100,50,500,500,200,100,200,200,50,50,200,100,200,50,50,500,50,100,50,100,200,100,200,200,50,100,500,50,500,100,50,100,200,50,500,100,500,200,100,100,50,500,100,100,200,100,50,100,50,100,500,500,200,50,200,500,100,200,50,500,50,50,50,50,200,500,100,50,200,50,50,100,100,50,50,50,200"
        # Node 11 random traffic
dtnsim.node[11].app.enable = true
dtnsim.node[11].app.bundlesNumber = "1,1,1,1,1,1,1,1,1,1,1,1,1,1,1,1,1,1,1,1,1,1,1,1,1,1,1,1,1,1,1,1,1,1,1,1,1,1,1,1,1,1,1,1,1,1,1,1,1,1,1,1,1,1,1,1,1,1,1,1,1,1,1,1,1,1,1,1,1,1,1,1,1,1,1,1,1,1,1,1,1,1,1,1,1,1,1,1,1,1,1,1,1,1,1,1,1,1,1,1"
dtnsim.node[11].app.start = "20,19,13,8,20,19,11,6,11,5,16,12,10,13,12,4,17,17,3,4,12,6,2,9,18,1,11,2,9,4,4,11,9,6,9,1,1,17,20,2,17,15,14,1,5,14,11,9,12,4,2,5,14,7,3,13,11,5,18,4,3,5,7,6,7,18,18,11,6,11,17,8,15,4,9,11,9,9,15,10,5,18,4,5,8,3,10,5,13,8,11,8,19,11,5,10,2,4,17,17"
dtnsim.node[11].app.destinationEid = "61,89,23,72,99,60,15,65,18,113,64,104,76,67,34,60,44,22,22,118,81,91,69,76,84,10,94,40,51,55,85,88,16,59,47,38,64,102,102,25,31,5,93,88,75,1,116,59,49,4,62,90,42,26,98,116,31,35,95,15,101,32,29,99,1,46,24,23,66,72,35,68,82,41,55,72,9,36,29,42,93,62,3,72,18,40,93,92,100,115,31,92,19,27,108,86,92,58,72,28"
dtnsim.node[11].app.size = "200,200,50,100,200,200,200,50,100,200,100,500,200,200,200,50,200,200,200,50,500,50,50,200,50,100,200,100,50,100,500,100,100,50,50,500,50,100,50,50,50,500,50,200,200,500,500,500,50,50,500,50,500,50,200,50,200,50,500,50,50,500,500,100,50,100,500,200,200,100,200,500,200,500,50,100,50,100,200,50,100,500,200,200,200,200,500,50,200,50,500,500,200,500,100,50,200,100,200,50"
        # Node 12 random traffic
dtnsim.node[12].app.enable = true
dtnsim.node[12].app.bundlesNumber = "1,1,1,1,1,1,1,1,1,1,1,1,1,1,1,1,1,1,1,1,1,1,1,1,1,1,1,1,1,1,1,1,1,1,1,1,1,1,1,1,1,1,1,1,1,1,1,1,1,1,1,1,1,1,1,1,1,1,1,1,1,1,1,1,1,1,1,1,1,1,1,1,1,1,1,1,1,1,1,1,1,1,1,1,1,1,1,1,1,1,1,1,1,1,1,1,1,1,1,1"
dtnsim.node[12].app.start = "17,19,3,18,6,1,20,13,6,2,20,20,5,7,10,5,4,9,3,19,11,7,20,12,17,14,3,11,13,20,16,7,9,16,17,5,12,13,11,2,4,16,5,1,13,5,7,13,12,5,12,11,2,10,20,17,14,10,13,8,8,4,5,4,2,15,14,9,2,12,5,8,15,16,10,18,18,1,4,1,1,11,12,10,1,5,18,11,18,2,20,10,4,4,9,17,14,18,2,11"
dtnsim.node[12].app.destinationEid = "110,55,85,17,96,111,16,71,77,33,69,31,4,107,37,45,50,118,10,89,54,53,99,22,58,94,40,114,102,44,58,48,41,25,44,70,117,107,46,11,57,62,83,7,73,118,104,115,62,78,42,76,73,108,5,13,70,88,46,94,50,112,74,87,21,50,104,81,57,102,88,94,108,44,62,105,99,56,25,104,17,109,105,40,16,116,104,114,106,56,106,23,48,19,117,25,14,103,36,3"
dtnsim.node[12].app.size = "500,200,50,100,200,100,50,500,50,500,200,100,100,200,200,200,100,50,200,200,100,50,50,500,500,100,100,200,200,200,50,100,200,200,50,100,200,100,50,50,50,100,500,50,200,50,500,200,200,500,200,200,50,100,500,100,500,200,200,50,200,500,200,100,500,50,500,50,50,100,100,50,500,50,100,200,50,200,500,50,500,50,50,50,500,200,500,500,100,500,200,200,50,100,100,500,200,50,50,100"
        # Node 13 random traffic
dtnsim.node[13].app.enable = true
dtnsim.node[13].app.bundlesNumber = "1,1,1,1,1,1,1,1,1,1,1,1,1,1,1,1,1,1,1,1,1,1,1,1,1,1,1,1,1,1,1,1,1,1,1,1,1,1,1,1,1,1,1,1,1,1,1,1,1,1,1,1,1,1,1,1,1,1,1,1,1,1,1,1,1,1,1,1,1,1,1,1,1,1,1,1,1,1,1,1,1,1,1,1,1,1,1,1,1,1,1,1,1,1,1,1,1,1,1,1"
dtnsim.node[13].app.start = "20,20,18,12,7,17,5,4,4,4,20,20,15,18,11,3,13,4,12,5,12,10,1,13,16,18,13,7,15,19,18,12,6,9,13,3,17,16,7,14,5,1,2,2,19,14,6,8,1,11,14,13,9,16,3,19,12,20,11,7,7,3,10,4,19,5,16,5,10,17,19,18,6,1,1,3,15,3,6,19,6,7,16,10,2,8,10,10,18,16,5,10,1,9,8,18,10,18,10,14"
dtnsim.node[13].app.destinationEid = "50,58,48,45,89,48,8,103,74,69,45,35,92,68,27,36,66,6,97,75,26,55,86,98,73,96,42,52,61,29,105,65,86,60,79,80,10,106,44,82,1,87,24,117,3,66,4,95,48,34,51,12,56,77,61,116,69,34,77,38,114,67,35,14,28,12,116,9,58,91,6,7,78,98,72,68,18,45,119,81,51,94,67,72,73,19,117,36,72,102,110,102,34,7,68,3,111,27,25,32"
dtnsim.node[13].app.size = "500,200,500,100,200,100,500,50,50,500,200,200,200,500,200,200,100,100,500,100,50,500,500,500,500,50,500,200,100,200,100,500,500,100,100,100,100,50,200,100,200,500,200,100,500,100,500,50,200,500,100,200,50,50,50,100,200,100,200,200,200,200,500,200,200,500,500,500,50,500,100,200,100,200,500,100,200,100,50,100,200,50,50,100,200,500,500,100,50,200,500,100,500,50,100,500,200,200,100,100"
        # Node 14 random traffic
dtnsim.node[14].app.enable = true
dtnsim.node[14].app.bundlesNumber = "1,1,1,1,1,1,1,1,1,1,1,1,1,1,1,1,1,1,1,1,1,1,1,1,1,1,1,1,1,1,1,1,1,1,1,1,1,1,1,1,1,1,1,1,1,1,1,1,1,1,1,1,1,1,1,1,1,1,1,1,1,1,1,1,1,1,1,1,1,1,1,1,1,1,1,1,1,1,1,1,1,1,1,1,1,1,1,1,1,1,1,1,1,1,1,1,1,1,1,1"
dtnsim.node[14].app.start = "19,5,8,4,19,5,13,18,20,10,10,17,8,11,20,13,11,12,12,17,15,17,20,12,10,1,18,15,8,4,16,18,18,15,8,12,8,4,3,18,13,4,18,14,4,4,19,20,6,11,10,16,11,16,12,5,13,1,10,9,11,19,11,12,14,3,5,10,16,2,16,15,14,20,3,12,11,18,18,3,20,9,1,10,16,6,1,11,12,7,17,19,7,10,4,12,3,15,2,10"
dtnsim.node[14].app.destinationEid = "88,27,51,46,24,52,107,82,7,36,11,51,71,83,114,31,107,99,47,54,20,48,55,46,61,25,32,102,20,57,40,49,103,4,86,46,57,13,33,66,40,58,38,25,3,34,92,24,54,27,36,106,78,20,95,118,120,35,78,68,78,46,55,42,9,46,37,3,10,8,100,6,22,55,35,111,36,85,100,101,76,102,104,120,110,81,21,20,11,48,27,66,33,42,111,13,41,88,38,52"
dtnsim.node[14].app.size = "200,200,100,100,50,500,100,500,200,500,200,500,100,50,100,100,500,500,50,100,50,50,200,200,500,100,200,500,50,100,50,50,100,500,500,50,100,50,50,200,500,50,100,100,200,200,500,100,200,100,50,500,500,200,100,500,200,50,500,500,100,50,100,500,50,100,100,500,500,200,200,100,500,500,50,50,500,50,100,200,50,200,500,100,100,100,500,200,500,200,200,500,50,500,200,100,500,100,100,200"
        # Node 15 random traffic
dtnsim.node[15].app.enable = true
dtnsim.node[15].app.bundlesNumber = "1,1,1,1,1,1,1,1,1,1,1,1,1,1,1,1,1,1,1,1,1,1,1,1,1,1,1,1,1,1,1,1,1,1,1,1,1,1,1,1,1,1,1,1,1,1,1,1,1,1,1,1,1,1,1,1,1,1,1,1,1,1,1,1,1,1,1,1,1,1,1,1,1,1,1,1,1,1,1,1,1,1,1,1,1,1,1,1,1,1,1,1,1,1,1,1,1,1,1,1"
dtnsim.node[15].app.start = "17,12,5,5,18,1,11,10,11,7,2,17,10,2,19,3,15,1,11,7,16,15,19,5,20,2,18,17,9,5,12,14,9,8,15,3,10,18,13,7,10,14,11,17,4,4,18,19,11,12,8,12,14,11,18,7,11,9,16,17,15,12,2,2,15,4,4,5,9,14,16,14,6,4,13,8,1,2,7,1,15,12,20,9,16,14,4,7,20,5,20,9,1,14,16,4,8,12,17,2"
dtnsim.node[15].app.destinationEid = "29,25,118,113,51,62,98,76,55,20,118,61,109,105,26,22,98,100,57,118,87,63,31,11,116,90,120,92,58,49,103,112,23,63,83,23,109,106,17,37,63,113,28,99,93,67,100,118,43,90,35,68,115,69,50,58,6,56,102,28,115,74,81,31,110,55,48,60,3,39,81,1,106,16,34,19,79,48,46,14,47,89,77,97,93,102,58,69,13,30,101,110,45,9,91,116,20,10,28,11"
dtnsim.node[15].app.size = "50,200,500,500,50,200,50,100,500,200,200,500,500,50,200,200,50,100,500,50,500,200,100,500,100,100,100,200,50,100,100,50,50,200,200,50,500,500,500,500,50,100,100,200,50,100,50,200,100,200,200,200,500,100,100,100,200,200,500,100,200,50,50,500,200,100,500,100,200,100,100,200,100,50,50,100,50,500,200,100,200,100,50,200,500,500,500,500,100,200,100,500,100,100,200,500,100,50,200,100"
        # Node 16 random traffic
dtnsim.node[16].app.enable = true
dtnsim.node[16].app.bundlesNumber = "1,1,1,1,1,1,1,1,1,1,1,1,1,1,1,1,1,1,1,1,1,1,1,1,1,1,1,1,1,1,1,1,1,1,1,1,1,1,1,1,1,1,1,1,1,1,1,1,1,1,1,1,1,1,1,1,1,1,1,1,1,1,1,1,1,1,1,1,1,1,1,1,1,1,1,1,1,1,1,1,1,1,1,1,1,1,1,1,1,1,1,1,1,1,1,1,1,1,1,1"
dtnsim.node[16].app.start = "20,9,20,14,4,8,19,5,19,8,5,14,19,4,18,6,20,4,2,20,13,8,20,1,20,1,12,6,3,5,8,17,5,1,18,16,2,14,4,19,20,1,20,14,8,12,5,17,18,16,13,8,3,16,14,20,12,1,12,14,15,9,12,20,12,17,8,5,5,2,16,6,8,1,3,7,15,10,5,8,12,1,17,14,5,5,10,6,18,4,5,18,1,8,17,19,8,14,4,7"
dtnsim.node[16].app.destinationEid = "34,35,46,86,110,82,63,66,117,91,22,22,2,51,104,37,119,82,9,74,110,25,109,95,35,102,93,28,37,35,84,26,25,86,24,100,35,44,43,95,39,58,59,90,98,85,62,48,77,15,97,61,77,100,117,113,46,54,81,90,119,80,35,73,68,37,3,66,20,53,87,35,52,48,15,63,41,96,47,66,92,12,108,30,29,79,75,22,8,41,107,39,65,112,25,12,25,75,14,82"
dtnsim.node[16].app.size = "50,200,500,50,50,500,50,200,200,50,200,50,50,200,200,50,200,100,500,50,200,500,200,500,500,200,500,200,50,500,50,200,50,200,200,200,50,100,50,50,200,100,100,100,50,500,500,100,200,500,200,500,100,200,50,100,100,50,500,200,50,500,500,200,50,100,500,500,100,500,200,100,50,200,50,500,50,500,200,500,500,50,500,100,50,100,100,500,100,100,500,50,50,50,50,100,200,50,50,500"
        # Node 17 random traffic
dtnsim.node[17].app.enable = true
dtnsim.node[17].app.bundlesNumber = "1,1,1,1,1,1,1,1,1,1,1,1,1,1,1,1,1,1,1,1,1,1,1,1,1,1,1,1,1,1,1,1,1,1,1,1,1,1,1,1,1,1,1,1,1,1,1,1,1,1,1,1,1,1,1,1,1,1,1,1,1,1,1,1,1,1,1,1,1,1,1,1,1,1,1,1,1,1,1,1,1,1,1,1,1,1,1,1,1,1,1,1,1,1,1,1,1,1,1,1"
dtnsim.node[17].app.start = "4,12,10,14,1,15,3,2,20,12,17,19,1,1,4,18,19,11,7,10,10,18,18,16,3,3,3,16,16,4,5,13,14,14,6,17,1,12,12,17,15,15,11,14,15,5,3,1,14,12,4,12,7,6,10,3,1,7,20,14,13,3,1,19,20,18,9,9,13,18,3,9,10,14,4,8,15,18,12,2,11,11,9,19,4,18,20,3,17,2,12,12,20,7,14,6,8,6,17,20"
dtnsim.node[17].app.destinationEid = "26,47,3,113,46,25,65,33,36,62,55,66,108,26,115,63,25,116,78,79,19,105,45,50,109,45,20,21,76,107,116,39,37,8,80,91,35,43,4,62,10,16,84,10,3,106,21,116,110,97,97,74,24,12,49,25,7,94,24,75,7,48,82,52,91,21,54,74,64,43,28,76,75,57,119,34,44,42,79,18,30,117,46,96,61,71,55,114,43,9,9,35,40,81,74,115,46,32,120,77"
dtnsim.node[17].app.size = "500,50,500,500,50,100,200,500,500,50,500,500,100,500,50,200,200,200,100,100,500,500,100,50,50,200,50,50,100,50,200,200,200,50,500,100,200,200,200,100,500,200,500,50,100,100,500,200,200,100,200,500,50,100,200,200,500,500,200,500,100,50,100,500,500,100,200,100,500,500,50,50,500,200,100,200,50,200,500,200,500,50,200,100,200,100,500,50,50,200,50,500,500,200,100,500,100,50,200,50"
        # Node 18 random traffic
dtnsim.node[18].app.enable = true
dtnsim.node[18].app.bundlesNumber = "1,1,1,1,1,1,1,1,1,1,1,1,1,1,1,1,1,1,1,1,1,1,1,1,1,1,1,1,1,1,1,1,1,1,1,1,1,1,1,1,1,1,1,1,1,1,1,1,1,1,1,1,1,1,1,1,1,1,1,1,1,1,1,1,1,1,1,1,1,1,1,1,1,1,1,1,1,1,1,1,1,1,1,1,1,1,1,1,1,1,1,1,1,1,1,1,1,1,1,1"
dtnsim.node[18].app.start = "6,16,4,3,10,17,6,7,6,12,10,2,7,3,11,20,11,2,10,13,10,6,7,5,11,20,13,17,1,6,13,13,6,17,15,5,13,7,20,3,10,5,6,17,17,4,10,4,11,9,11,17,8,3,11,6,11,17,3,10,3,7,18,15,18,2,5,19,6,20,4,15,9,16,5,10,13,16,2,1,1,6,13,18,16,11,14,20,7,6,13,16,4,16,10,20,8,3,13,13"
dtnsim.node[18].app.destinationEid = "10,66,118,12,102,37,116,96,1,41,47,75,59,94,25,41,48,20,37,63,13,48,105,10,8,21,25,3,35,17,115,99,15,94,4,12,84,76,16,43,55,37,55,54,60,100,86,47,101,47,65,68,110,85,102,25,77,102,71,77,110,116,48,93,5,22,92,84,39,98,41,49,54,94,38,17,111,102,79,79,42,105,98,57,65,29,79,5,19,106,109,56,7,5,17,45,52,25,92,37"
dtnsim.node[18].app.size = "100,50,100,200,50,200,50,100,200,50,100,50,100,50,500,200,500,200,500,100,500,500,100,50,200,500,500,50,500,50,50,500,500,100,100,50,200,500,100,200,500,500,50,200,100,100,50,200,100,100,50,100,50,50,200,200,50,100,50,100,500,200,200,100,500,500,200,100,100,500,500,50,200,100,50,100,200,100,500,200,500,100,200,200,50,500,100,200,100,500,200,100,100,500,100,200,100,200,100,500"
        # Node 19 random traffic
dtnsim.node[19].app.enable = true
dtnsim.node[19].app.bundlesNumber = "1,1,1,1,1,1,1,1,1,1,1,1,1,1,1,1,1,1,1,1,1,1,1,1,1,1,1,1,1,1,1,1,1,1,1,1,1,1,1,1,1,1,1,1,1,1,1,1,1,1,1,1,1,1,1,1,1,1,1,1,1,1,1,1,1,1,1,1,1,1,1,1,1,1,1,1,1,1,1,1,1,1,1,1,1,1,1,1,1,1,1,1,1,1,1,1,1,1,1,1"
dtnsim.node[19].app.start = "16,16,5,15,17,16,8,6,13,17,9,8,20,6,14,15,6,12,3,14,7,7,11,18,9,16,1,17,6,15,6,5,8,14,6,9,20,10,10,3,4,10,10,19,4,10,15,13,12,9,6,18,17,15,4,1,10,1,6,12,12,2,20,8,4,19,5,18,3,19,7,18,6,4,4,4,6,18,10,19,5,5,9,6,17,4,10,18,6,15,8,1,15,18,20,7,5,6,3,14"
dtnsim.node[19].app.destinationEid = "92,24,74,41,78,99,69,36,99,52,96,13,47,12,120,110,82,54,93,15,59,64,88,95,114,120,71,88,52,96,49,68,36,106,9,63,32,67,29,20,66,120,104,57,107,58,16,25,26,52,30,93,47,57,99,104,88,6,29,116,29,26,9,78,55,88,107,69,23,65,118,80,13,101,33,102,1,59,92,13,106,63,39,81,10,17,99,1,84,120,72,92,54,58,66,1,6,112,34,51"
dtnsim.node[19].app.size = "100,100,500,500,50,200,100,100,500,500,200,50,200,50,100,100,500,500,100,200,50,200,500,500,50,50,100,500,50,50,200,50,100,50,50,50,50,100,200,50,100,200,100,200,50,50,500,50,200,200,50,200,200,200,50,100,100,50,100,50,200,200,50,50,500,200,100,500,200,200,100,200,200,500,200,200,50,500,200,100,200,50,500,500,50,50,500,500,100,500,500,100,50,200,50,100,500,50,500,50"
        # Node 20 random traffic
dtnsim.node[20].app.enable = true
dtnsim.node[20].app.bundlesNumber = "1,1,1,1,1,1,1,1,1,1,1,1,1,1,1,1,1,1,1,1,1,1,1,1,1,1,1,1,1,1,1,1,1,1,1,1,1,1,1,1,1,1,1,1,1,1,1,1,1,1,1,1,1,1,1,1,1,1,1,1,1,1,1,1,1,1,1,1,1,1,1,1,1,1,1,1,1,1,1,1,1,1,1,1,1,1,1,1,1,1,1,1,1,1,1,1,1,1,1,1"
dtnsim.node[20].app.start = "6,13,9,3,15,6,1,20,3,9,10,14,12,15,9,13,12,17,2,4,14,3,6,17,9,19,11,5,3,10,10,11,4,7,15,19,4,18,13,8,6,17,1,11,5,7,15,2,15,10,3,16,14,13,2,20,7,5,19,13,9,8,6,17,5,18,5,11,10,19,20,14,12,2,13,7,7,19,12,2,20,6,8,4,7,11,9,7,12,8,10,5,6,2,20,20,5,17,8,4"
dtnsim.node[20].app.destinationEid = "91,98,107,9,80,94,18,19,6,42,1,15,4,26,49,110,22,104,94,102,43,76,41,65,47,31,3,17,108,25,8,41,36,91,2,13,8,58,65,51,110,75,40,69,6,103,78,41,74,115,83,54,52,104,107,54,97,84,37,90,47,13,93,66,13,78,6,64,14,11,8,117,5,67,54,101,40,92,112,108,4,77,4,67,27,118,32,80,29,30,78,102,28,92,51,34,11,75,75,70"
dtnsim.node[20].app.size = "50,200,500,500,500,500,500,200,500,50,500,500,100,100,200,100,100,100,200,100,50,100,50,500,100,500,50,500,500,100,100,500,100,500,200,50,50,200,50,500,200,100,500,200,100,200,200,50,50,200,200,50,100,200,50,500,100,100,500,100,50,50,500,50,500,200,200,100,200,200,100,200,50,200,50,500,50,200,100,50,100,200,50,200,50,100,100,200,100,200,100,50,500,100,100,200,100,100,500,50"
        # Node 21 random traffic
dtnsim.node[21].app.enable = true
dtnsim.node[21].app.bundlesNumber = "1,1,1,1,1,1,1,1,1,1,1,1,1,1,1,1,1,1,1,1,1,1,1,1,1,1,1,1,1,1,1,1,1,1,1,1,1,1,1,1,1,1,1,1,1,1,1,1,1,1,1,1,1,1,1,1,1,1,1,1,1,1,1,1,1,1,1,1,1,1,1,1,1,1,1,1,1,1,1,1,1,1,1,1,1,1,1,1,1,1,1,1,1,1,1,1,1,1,1,1"
dtnsim.node[21].app.start = "14,9,16,16,7,2,2,18,1,15,9,6,8,2,13,11,18,2,11,18,1,10,13,6,10,19,13,19,20,19,14,16,7,8,20,17,3,1,19,11,6,19,6,19,18,20,8,16,13,15,20,15,9,8,8,5,1,7,1,19,2,16,9,4,10,15,2,7,4,16,15,16,14,12,9,11,7,13,2,8,10,16,8,15,10,8,2,19,17,8,20,11,20,6,10,4,18,18,15,19"
dtnsim.node[21].app.destinationEid = "93,67,85,71,95,38,62,100,86,113,109,73,61,6,93,106,44,47,3,109,98,18,118,39,32,80,4,49,73,17,59,70,47,59,45,41,24,11,55,95,108,84,37,113,34,15,42,100,14,31,65,88,4,41,102,110,44,101,74,58,41,4,10,100,103,19,84,120,99,39,10,11,100,3,31,75,12,42,101,106,44,60,108,88,38,41,26,101,51,64,62,120,99,43,111,6,76,44,43,35"
dtnsim.node[21].app.size = "100,100,200,50,500,50,100,500,200,500,200,500,500,100,100,50,200,100,500,200,500,50,200,200,500,200,500,100,100,500,200,100,50,200,50,100,500,50,100,50,100,200,50,200,50,200,100,500,500,100,500,200,500,500,200,50,100,500,200,50,50,50,200,50,200,100,100,500,500,50,200,500,500,200,50,100,100,100,50,50,200,50,100,100,100,500,200,200,200,50,50,100,50,200,500,500,200,50,100,200"
        # Node 22 random traffic
dtnsim.node[22].app.enable = true
dtnsim.node[22].app.bundlesNumber = "1,1,1,1,1,1,1,1,1,1,1,1,1,1,1,1,1,1,1,1,1,1,1,1,1,1,1,1,1,1,1,1,1,1,1,1,1,1,1,1,1,1,1,1,1,1,1,1,1,1,1,1,1,1,1,1,1,1,1,1,1,1,1,1,1,1,1,1,1,1,1,1,1,1,1,1,1,1,1,1,1,1,1,1,1,1,1,1,1,1,1,1,1,1,1,1,1,1,1,1"
dtnsim.node[22].app.start = "12,8,1,12,1,20,13,20,17,9,10,19,2,20,14,4,3,13,7,12,14,5,10,4,9,8,14,20,3,19,8,19,9,3,7,3,14,20,5,14,14,18,1,17,18,11,20,11,9,9,16,12,10,5,1,11,3,19,7,9,14,6,15,7,3,8,17,9,15,1,20,19,12,10,18,7,11,4,2,5,10,3,8,1,18,12,14,12,1,19,7,19,19,9,18,20,16,4,1,7"
dtnsim.node[22].app.destinationEid = "20,108,102,18,72,33,108,92,85,15,42,71,44,74,30,76,24,1,76,99,61,59,47,78,67,27,49,90,84,35,120,64,62,64,55,86,52,51,75,70,110,4,5,84,54,112,51,117,99,100,95,8,4,100,106,36,84,43,18,29,100,39,95,21,54,98,107,96,104,112,33,24,96,29,90,5,48,55,93,117,71,1,7,35,73,51,13,32,26,63,107,31,76,65,96,74,82,91,102,49"