[General]
network = src.dtnsim										
repeat = 1
allow-object-stealing-on-deletion = true

# Simulation end time
sim-time-limit = 84600s

# Nodes quantity (identifiers (EiDs) matches their index, EiD=0 is ignored)			
dtnsim.nodesNumber = 360
dtnsim.node[*].icon = "satellite"

# Nodes's failure rates
dtnsim.node[*].fault.enable = true
dtnsim.node[*].fault.meanTTF = 190s
dtnsim.node[*].fault.meanTTR = 10s

# Mobility
dtnsim.node[*].hasMobility = true
dtnsim.node[*].norad.satIndex = parentIndex()
dtnsim.node[*].norad.satName = "sat"
**.updateInterval = 20s
**.numOfSats = 360
**.satPerPlane = 18
**.altitude = 540
**.planes = 20
**.phaseOffset = 11

dtnsim.node[*].dtn.routing = "antop"
dtnsim.node[*].dtn.printRoutingDebug = true

# --- Random Traffic Configuration ---
# Node 1 random traffic
dtnsim.node[1].app.enable = true
dtnsim.node[1].app.bundlesNumber = "17,8,10,8,17,14,21,3,2"
dtnsim.node[1].app.start = "20,69,21,68,60,74,46,96,43"
dtnsim.node[1].app.destinationEid = "107,293,137,85,4,351,247,343,205"
dtnsim.node[1].app.size = "100,500,200,50,50,50,500,200,50"
# Node 2 random traffic
dtnsim.node[2].app.enable = true
dtnsim.node[2].app.bundlesNumber = "17,24,25,17,5,9,2,1"
dtnsim.node[2].app.start = "62,60,42,11,96,14,17,62"
dtnsim.node[2].app.destinationEid = "161,274,247,343,115,55,165,297"
dtnsim.node[2].app.size = "50,100,50,100,100,200,50,100"
# Node 3 random traffic
dtnsim.node[3].app.enable = true
dtnsim.node[3].app.bundlesNumber = "11,15,10,24,7,21,2,7,1,1,1"
dtnsim.node[3].app.start = "23,89,98,56,28,68,82,85,11,98,95"
dtnsim.node[3].app.destinationEid = "118,310,89,255,344,183,301,206,178,233,249"
dtnsim.node[3].app.size = "500,500,50,200,200,200,500,200,100,100,50"
# Node 4 random traffic
dtnsim.node[4].app.enable = true
dtnsim.node[4].app.bundlesNumber = "21,19,5,11,9,11,20,2,1,1"
dtnsim.node[4].app.start = "66,5,44,34,50,98,83,95,92,95"
dtnsim.node[4].app.destinationEid = "17,283,180,5,34,108,174,187,34,40"
dtnsim.node[4].app.size = "50,200,100,200,200,500,100,50,500,200"
# Node 5 random traffic
dtnsim.node[5].app.enable = true
dtnsim.node[5].app.bundlesNumber = "3,11,24,14,8,25,8,5,2"
dtnsim.node[5].app.start = "58,46,72,73,51,75,90,19,82"
dtnsim.node[5].app.destinationEid = "111,259,11,170,87,256,258,24,77"
dtnsim.node[5].app.size = "500,200,200,100,50,500,100,200,500"
# Node 6 random traffic
dtnsim.node[6].app.enable = true
dtnsim.node[6].app.bundlesNumber = "14,16,16,2,9,12,19,11,1"
dtnsim.node[6].app.start = "56,97,23,74,79,10,10,20,17"
dtnsim.node[6].app.destinationEid = "335,209,282,59,207,29,7,152,34"
dtnsim.node[6].app.size = "200,100,500,50,500,200,500,100,200"
# Node 7 random traffic
dtnsim.node[7].app.enable = true
dtnsim.node[7].app.bundlesNumber = "13,13,21,16,24,13"
dtnsim.node[7].app.start = "49,43,97,19,56,51"
dtnsim.node[7].app.destinationEid = "41,5,315,11,115,338"
dtnsim.node[7].app.size = "50,200,50,50,500,50"
# Node 8 random traffic
dtnsim.node[8].app.enable = true
dtnsim.node[8].app.bundlesNumber = "20,19,16,11,13,5,16"
dtnsim.node[8].app.start = "14,74,73,74,17,24,51"
dtnsim.node[8].app.destinationEid = "139,116,180,156,128,225,314"
dtnsim.node[8].app.size = "50,50,100,100,50,500,200"
# Node 9 random traffic
dtnsim.node[9].app.enable = true
dtnsim.node[9].app.bundlesNumber = "18,17,5,11,12,18,15,4"
dtnsim.node[9].app.start = "97,79,69,26,1,10,19,47"
dtnsim.node[9].app.destinationEid = "125,131,105,333,103,139,214,197"
dtnsim.node[9].app.size = "500,100,200,500,200,500,50,100"
# Node 10 random traffic
dtnsim.node[10].app.enable = true
dtnsim.node[10].app.bundlesNumber = "20,7,13,18,11,24,4,3"
dtnsim.node[10].app.start = "18,52,2,96,40,45,12,24"
dtnsim.node[10].app.destinationEid = "32,333,255,40,271,4,241,345"
dtnsim.node[10].app.size = "200,500,50,500,500,500,500,500"
# Node 11 random traffic
dtnsim.node[11].app.enable = true
dtnsim.node[11].app.bundlesNumber = "12,1,22,1,12,1,10,3,6,22,1,5,1,1,1,1"
dtnsim.node[11].app.start = "92,2,39,15,68,81,30,43,49,16,43,30,31,23,18,19"
dtnsim.node[11].app.destinationEid = "268,207,352,52,336,247,335,331,307,92,314,251,321,211,329,85"
dtnsim.node[11].app.size = "500,200,100,50,50,50,500,100,50,500,50,200,200,100,500,500"
# Node 12 random traffic
dtnsim.node[12].app.enable = true
dtnsim.node[12].app.bundlesNumber = "14,3,1,24,4,5,22,8,1,14,1,1,2"
dtnsim.node[12].app.start = "5,17,12,69,97,98,65,10,98,74,96,20,62"
dtnsim.node[12].app.destinationEid = "258,185,342,323,103,6,340,18,308,230,342,322,284"
dtnsim.node[12].app.size = "500,200,200,200,50,200,500,100,50,100,50,50,200"
# Node 13 random traffic
dtnsim.node[13].app.enable = true
dtnsim.node[13].app.bundlesNumber = "21,2,15,13,24,14,4,6,1"
dtnsim.node[13].app.start = "68,61,34,86,85,96,13,6,51"
dtnsim.node[13].app.destinationEid = "11,215,224,296,99,12,235,55,349"
dtnsim.node[13].app.size = "50,100,200,200,500,100,500,500,50"
# Node 14 random traffic
dtnsim.node[14].app.enable = true
dtnsim.node[14].app.bundlesNumber = "15,13,15,25,12,2,18"
dtnsim.node[14].app.start = "66,54,97,76,75,19,30"
dtnsim.node[14].app.destinationEid = "161,101,61,225,288,50,163"
dtnsim.node[14].app.size = "50,100,50,500,500,200,500"
# Node 15 random traffic
dtnsim.node[15].app.enable = true
dtnsim.node[15].app.bundlesNumber = "4,20,19,5,15,22,7,1,6,1"
dtnsim.node[15].app.start = "90,2,22,17,91,1,62,59,32,4"
dtnsim.node[15].app.destinationEid = "335,51,92,83,287,167,164,205,106,248"
dtnsim.node[15].app.size = "50,100,500,100,500,500,100,200,500,100"
# Node 16 random traffic
dtnsim.node[16].app.enable = true
dtnsim.node[16].app.bundlesNumber = "3,1,16,23,11,14,14,4,13,1"
dtnsim.node[16].app.start = "75,36,92,45,44,45,6,99,43,1"
dtnsim.node[16].app.destinationEid = "36,336,290,221,56,292,229,108,286,201"
dtnsim.node[16].app.size = "500,500,50,500,200,50,50,50,100,500"
# Node 17 random traffic
dtnsim.node[17].app.enable = true
dtnsim.node[17].app.bundlesNumber = "8,1,1,20,20,7,25,15,1,1,1"
dtnsim.node[17].app.start = "35,50,67,66,55,88,37,52,4,69,36"
dtnsim.node[17].app.destinationEid = "133,333,241,273,335,101,268,141,57,155,9"
dtnsim.node[17].app.size = "50,200,500,500,100,200,200,50,100,100,200"
# Node 18 random traffic
dtnsim.node[18].app.enable = true
dtnsim.node[18].app.bundlesNumber = "16,19,3,23,18,10,3,1,2,1,4"
dtnsim.node[18].app.start = "92,82,10,27,45,94,64,93,78,33,44"
dtnsim.node[18].app.destinationEid = "333,78,181,11,250,285,334,163,200,15,29"
dtnsim.node[18].app.size = "50,500,100,200,50,50,500,200,200,50,100"
# Node 19 random traffic
dtnsim.node[19].app.enable = true
dtnsim.node[19].app.bundlesNumber = "13,24,5,1,4,8,15,3,16,9,1,1"
dtnsim.node[19].app.start = "63,9,70,96,80,93,39,19,26,26,41,5"
dtnsim.node[19].app.destinationEid = "138,166,257,189,83,61,170,211,296,177,309,144"
dtnsim.node[19].app.size = "500,200,50,50,100,100,50,500,50,100,200,200"
# Node 20 random traffic
dtnsim.node[20].app.enable = true
dtnsim.node[20].app.bundlesNumber = "14,13,15,6,25,19,1,6,1"
dtnsim.node[20].app.start = "10,21,46,35,22,6,34,67,28"
dtnsim.node[20].app.destinationEid = "332,102,131,130,143,335,133,314,275"
dtnsim.node[20].app.size = "500,200,50,50,100,50,500,100,200"
# Node 21 random traffic
dtnsim.node[21].app.enable = true
dtnsim.node[21].app.bundlesNumber = "1,17,11,25,8,17,5,3,13"
dtnsim.node[21].app.start = "46,22,94,84,85,29,26,49,65"
dtnsim.node[21].app.destinationEid = "215,149,290,287,65,43,133,165,311"
dtnsim.node[21].app.size = "100,50,500,500,500,50,50,500,100"
# Node 22 random traffic
dtnsim.node[22].app.enable = true
dtnsim.node[22].app.bundlesNumber = "8,12,5,14,11,25,9,5,4,3,3,1"
dtnsim.node[22].app.start = "90,3,4,22,56,61,4,54,81,27,58,6"
dtnsim.node[22].app.destinationEid = "352,90,251,235,276,176,269,26,104,307,299,256"
dtnsim.node[22].app.size = "200,500,100,100,100,200,100,500,500,100,500,500"
# Node 23 random traffic
dtnsim.node[23].app.enable = true
dtnsim.node[23].app.bundlesNumber = "23,3,9,25,20,20"
dtnsim.node[23].app.start = "6,66,16,86,19,18"
dtnsim.node[23].app.destinationEid = "236,80,175,55,169,226"
dtnsim.node[23].app.size = "100,500,500,500,200,50"
# Node 24 random traffic
dtnsim.node[24].app.enable = true
dtnsim.node[24].app.bundlesNumber = "1,12,3,9,25,12,12,11,11,4"
dtnsim.node[24].app.start = "83,15,61,11,93,17,46,34,26,46"
dtnsim.node[24].app.destinationEid = "76,131,156,176,300,213,318,232,50,192"
dtnsim.node[24].app.size = "50,100,200,100,500,50,200,100,50,200"
# Node 25 random traffic
dtnsim.node[25].app.enable = true
dtnsim.node[25].app.bundlesNumber = "4,10,10,12,10,23,20,7,2,2"
dtnsim.node[25].app.start = "79,22,48,55,85,72,87,1,100,12"
dtnsim.node[25].app.destinationEid = "238,301,46,19,351,329,286,278,59,101"
dtnsim.node[25].app.size = "200,500,200,50,200,50,100,200,200,100"
# Node 26 random traffic
dtnsim.node[26].app.enable = true
dtnsim.node[26].app.bundlesNumber = "11,10,3,2,12,2,23,14,6,12,5"
dtnsim.node[26].app.start = "66,69,79,44,57,10,37,82,90,2,23"
dtnsim.node[26].app.destinationEid = "91,186,23,206,262,117,121,76,12,49,237"
dtnsim.node[26].app.size = "200,100,50,200,200,100,50,100,50,500,500"
# Node 27 random traffic
dtnsim.node[27].app.enable = true
dtnsim.node[27].app.bundlesNumber = "10,2,7,5,9,18,11,7,19,12"
dtnsim.node[27].app.start = "90,96,16,25,41,29,35,34,58,5"
dtnsim.node[27].app.destinationEid = "244,165,236,122,191,168,259,267,276,8"
dtnsim.node[27].app.size = "200,50,50,500,200,200,200,200,200,100"
# Node 28 random traffic
dtnsim.node[28].app.enable = true
dtnsim.node[28].app.bundlesNumber = "20,20,5,15,6,13,3,6,9,1,1,1"
dtnsim.node[28].app.start = "25,41,93,82,46,98,13,18,83,53,31,29"
dtnsim.node[28].app.destinationEid = "317,287,350,352,357,324,120,256,144,158,215,198"
dtnsim.node[28].app.size = "200,200,50,50,100,50,50,100,50,100,500,100"
# Node 29 random traffic
dtnsim.node[29].app.enable = true
dtnsim.node[29].app.bundlesNumber = "12,12,12,17,14,13,1,13,4,2"
dtnsim.node[29].app.start = "32,58,1,72,60,16,50,44,7,86"
dtnsim.node[29].app.destinationEid = "215,7,308,56,221,270,332,173,352,244"
dtnsim.node[29].app.size = "200,50,200,100,500,500,500,100,100,500"
# Node 30 random traffic
dtnsim.node[30].app.enable = true
dtnsim.node[30].app.bundlesNumber = "20,19,3,24,11,18,1,3,1"
dtnsim.node[30].app.start = "58,55,34,13,7,54,68,70,20"
dtnsim.node[30].app.destinationEid = "313,278,134,156,188,38,110,87,280"
dtnsim.node[30].app.size = "500,200,500,100,500,100,500,50,100"
# Node 31 random traffic
dtnsim.node[31].app.enable = true
dtnsim.node[31].app.bundlesNumber = "20,21,21,25,10,2,1"
dtnsim.node[31].app.start = "94,40,11,85,84,85,84"
dtnsim.node[31].app.destinationEid = "32,162,220,340,110,226,228"
dtnsim.node[31].app.size = "50,100,50,100,50,500,100"
# Node 32 random traffic
dtnsim.node[32].app.enable = true
dtnsim.node[32].app.bundlesNumber = "5,19,25,3,13,15,11,1,5,3"
dtnsim.node[32].app.start = "97,78,18,78,27,26,70,38,78,78"
dtnsim.node[32].app.destinationEid = "78,14,352,14,154,140,277,60,103,179"
dtnsim.node[32].app.size = "100,50,500,200,100,500,50,50,50,500"
# Node 33 random traffic
dtnsim.node[33].app.enable = true
dtnsim.node[33].app.bundlesNumber = "17,15,4,6,9,13,11,25"
dtnsim.node[33].app.start = "28,96,95,92,12,92,90,65"
dtnsim.node[33].app.destinationEid = "275,12,36,18,330,333,261,106"
dtnsim.node[33].app.size = "200,50,50,100,500,100,500,500"
# Node 34 random traffic
dtnsim.node[34].app.enable = true
dtnsim.node[34].app.bundlesNumber = "5,14,17,10,14,13,7,16,3,1"
dtnsim.node[34].app.start = "17,89,85,29,32,59,62,78,25,88"
dtnsim.node[34].app.destinationEid = "60,334,350,243,100,348,324,158,210,258"
dtnsim.node[34].app.size = "200,200,50,100,100,200,200,50,500,100"
# Node 35 random traffic
dtnsim.node[35].app.enable = true
dtnsim.node[35].app.bundlesNumber = "10,1,14,6,12,8,16,24,7,2"
dtnsim.node[35].app.start = "79,48,92,68,87,42,9,42,92,90"
dtnsim.node[35].app.destinationEid = "163,285,222,29,317,53,230,192,64,177"
dtnsim.node[35].app.size = "100,50,200,50,100,500,50,200,50,200"
# Node 36 random traffic
dtnsim.node[36].app.enable = true
dtnsim.node[36].app.bundlesNumber = "16,11,24,25,11,2,9,1,1"
dtnsim.node[36].app.start = "23,71,65,28,78,58,72,68,20"
dtnsim.node[36].app.destinationEid = "65,226,284,95,200,95,39,128,155"
dtnsim.node[36].app.size = "500,100,50,100,50,100,100,200,50"
# Node 37 random traffic
dtnsim.node[37].app.enable = true
dtnsim.node[37].app.bundlesNumber = "22,1,13,23,2,22,10,2,5"
dtnsim.node[37].app.start = "37,24,19,54,52,9,90,30,36"
dtnsim.node[37].app.destinationEid = "192,119,20,198,215,8,120,268,127"
dtnsim.node[37].app.size = "500,100,200,50,100,500,500,100,500"
# Node 38 random traffic
dtnsim.node[38].app.enable = true
dtnsim.node[38].app.bundlesNumber = "14,14,25,1,25,19,2"
dtnsim.node[38].app.start = "17,3,59,87,9,11,26"
dtnsim.node[38].app.destinationEid = "166,353,191,142,284,201,140"
dtnsim.node[38].app.size = "500,500,50,100,200,200,100"
# Node 39 random traffic
dtnsim.node[39].app.enable = true
dtnsim.node[39].app.bundlesNumber = "4,25,13,18,8,11,13,3,2,2,1"
dtnsim.node[39].app.start = "42,22,10,81,43,28,42,52,78,96,95"
dtnsim.node[39].app.destinationEid = "25,280,115,328,351,64,332,192,331,357,248"
dtnsim.node[39].app.size = "500,50,100,500,500,50,50,50,100,200,100"
# Node 40 random traffic
dtnsim.node[40].app.enable = true
dtnsim.node[40].app.bundlesNumber = "8,12,25,5,25,14,10,1"
dtnsim.node[40].app.start = "34,57,44,32,88,10,82,36"
dtnsim.node[40].app.destinationEid = "64,55,248,169,180,311,218,282"
dtnsim.node[40].app.size = "500,50,100,100,200,100,200,500"
# Node 41 random traffic
dtnsim.node[41].app.enable = true
dtnsim.node[41].app.bundlesNumber = "7,23,22,20,15,4,8,1"
dtnsim.node[41].app.start = "92,50,35,25,59,49,37,46"
dtnsim.node[41].app.destinationEid = "176,166,336,144,64,90,334,258"
dtnsim.node[41].app.size = "200,500,50,500,50,200,100,100"
# Node 42 random traffic
dtnsim.node[42].app.enable = true
dtnsim.node[42].app.bundlesNumber = "1,6,2,20,9,6,23,12,18,3"
dtnsim.node[42].app.start = "90,47,54,55,91,21,46,63,81,92"
dtnsim.node[42].app.destinationEid = "149,186,76,47,178,109,353,57,203,45"
dtnsim.node[42].app.size = "500,200,50,100,100,500,500,100,100,100"
# Node 43 random traffic
dtnsim.node[43].app.enable = true
dtnsim.node[43].app.bundlesNumber = "19,16,23,11,14,14,3"
dtnsim.node[43].app.start = "88,45,51,30,93,5,25"
dtnsim.node[43].app.destinationEid = "345,305,75,4,191,262,323"
dtnsim.node[43].app.size = "500,200,50,50,500,100,200"
# Node 44 random traffic
dtnsim.node[44].app.enable = true
dtnsim.node[44].app.bundlesNumber = "15,9,19,4,12,11,14,2,12,2"
dtnsim.node[44].app.start = "76,30,15,70,62,90,44,60,20,96"
dtnsim.node[44].app.destinationEid = "148,286,297,53,46,121,29,28,153,334"
dtnsim.node[44].app.size = "50,100,500,100,500,50,50,50,200,200"
# Node 45 random traffic
dtnsim.node[45].app.enable = true
dtnsim.node[45].app.bundlesNumber = "9,5,21,20,13,14,11,5,2"
dtnsim.node[45].app.start = "82,74,21,50,24,42,37,86,48"
dtnsim.node[45].app.destinationEid = "242,88,234,77,81,296,29,339,295"
dtnsim.node[45].app.size = "200,200,100,100,200,200,100,50,50"
# Node 46 random traffic
dtnsim.node[46].app.enable = true
dtnsim.node[46].app.bundlesNumber = "2,2,9,17,5,5,18,2,11,11,16,1,1"
dtnsim.node[46].app.start = "32,63,39,48,43,76,98,13,22,25,31,94,14"
dtnsim.node[46].app.destinationEid = "357,151,237,30,7,301,186,239,333,134,252,276,203"
dtnsim.node[46].app.size = "200,100,50,200,100,500,200,50,200,50,100,200,200"
# Node 47 random traffic
dtnsim.node[47].app.enable = true
dtnsim.node[47].app.bundlesNumber = "7,19,2,24,7,3,13,24,1"
dtnsim.node[47].app.start = "7,44,44,76,89,86,68,82,91"
dtnsim.node[47].app.destinationEid = "208,73,249,71,16,213,59,240,119"
dtnsim.node[47].app.size = "200,50,200,50,100,100,50,500,500"
# Node 48 random traffic
dtnsim.node[48].app.enable = true
dtnsim.node[48].app.bundlesNumber = "2,7,24,15,22,23,5,2"
dtnsim.node[48].app.start = "25,16,67,18,2,86,1,39"
dtnsim.node[48].app.destinationEid = "298,350,142,223,243,267,262,31"
dtnsim.node[48].app.size = "50,500,50,500,200,50,100,100"
# Node 49 random traffic
dtnsim.node[49].app.enable = true
dtnsim.node[49].app.bundlesNumber = "17,2,5,2,20,9,24,20,1"
dtnsim.node[49].app.start = "96,43,79,96,24,30,5,28,4"
dtnsim.node[49].app.destinationEid = "359,182,214,290,87,287,165,324,232"
dtnsim.node[49].app.size = "500,50,50,50,50,50,100,500,50"
# Node 50 random traffic
dtnsim.node[50].app.enable = true
dtnsim.node[50].app.bundlesNumber = "20,17,3,12,17,25,5,1"
dtnsim.node[50].app.start = "32,12,5,35,28,43,55,35"
dtnsim.node[50].app.destinationEid = "354,237,15,204,177,68,107,230"
dtnsim.node[50].app.size = "100,50,200,100,500,500,50,50"
# Node 51 random traffic
dtnsim.node[51].app.enable = true
dtnsim.node[51].app.bundlesNumber = "11,7,8,8,4,17,17,23,5"
dtnsim.node[51].app.start = "6,69,100,68,91,75,18,94,39"
dtnsim.node[51].app.destinationEid = "32,99,47,197,315,343,235,292,305"
dtnsim.node[51].app.size = "200,100,50,500,500,50,100,100,500"
# Node 52 random traffic
dtnsim.node[52].app.enable = true
dtnsim.node[52].app.bundlesNumber = "10,17,11,2,13,20,6,20,1"
dtnsim.node[52].app.start = "60,7,81,25,92,41,69,46,10"
dtnsim.node[52].app.destinationEid = "350,116,82,108,209,12,233,82,330"
dtnsim.node[52].app.size = "500,50,100,500,500,200,500,200,100"
# Node 53 random traffic
dtnsim.node[53].app.enable = true
dtnsim.node[53].app.bundlesNumber = "7,21,18,1,24,11,10,8"
dtnsim.node[53].app.start = "18,43,57,93,89,39,19,57"
dtnsim.node[53].app.destinationEid = "227,223,107,166,223,212,149,210"
dtnsim.node[53].app.size = "100,500,200,500,100,100,500,50"
# Node 54 random traffic
dtnsim.node[54].app.enable = true
dtnsim.node[54].app.bundlesNumber = "2,19,7,3,15,4,8,23,1,10,3,2,2,1"
dtnsim.node[54].app.start = "88,16,84,28,46,95,62,14,34,66,49,44,85,60"
dtnsim.node[54].app.destinationEid = "22,15,168,141,119,102,302,291,279,116,202,76,60,352"
dtnsim.node[54].app.size = "500,200,50,50,200,200,200,100,200,50,200,100,100,50"
# Node 55 random traffic
dtnsim.node[55].app.enable = true
dtnsim.node[55].app.bundlesNumber = "25,9,20,13,6,11,13,1,1,1"
dtnsim.node[55].app.start = "80,83,17,18,78,69,9,80,75,54"
dtnsim.node[55].app.destinationEid = "227,226,56,9,245,169,99,245,311,161"
dtnsim.node[55].app.size = "50,500,200,100,50,50,100,200,200,50"
# Node 56 random traffic
dtnsim.node[56].app.enable = true
dtnsim.node[56].app.bundlesNumber = "15,5,10,10,24,12,23,1"
dtnsim.node[56].app.start = "55,19,13,96,77,12,85,22"
dtnsim.node[56].app.destinationEid = "360,298,144,130,149,104,62,262"
dtnsim.node[56].app.size = "50,100,500,50,200,100,200,100"
# Node 57 random traffic
dtnsim.node[57].app.enable = true
dtnsim.node[57].app.bundlesNumber = "11,22,7,3,11,8,9,16,2,1,5,1,2,1,1"
dtnsim.node[57].app.start = "26,21,82,48,83,13,62,4,50,98,48,53,47,84,65"
dtnsim.node[57].app.destinationEid = "162,320,222,341,134,136,76,287,209,320,66,218,199,177,324"
dtnsim.node[57].app.size = "200,500,50,200,50,200,200,50,500,100,200,200,50,100,50"
# Node 58 random traffic
dtnsim.node[58].app.enable = true
dtnsim.node[58].app.bundlesNumber = "9,17,20,21,25,1,2,1,4"
dtnsim.node[58].app.start = "56,68,48,87,50,84,39,14,30"
dtnsim.node[58].app.destinationEid = "186,63,275,176,323,67,298,191,299"
dtnsim.node[58].app.size = "500,50,200,50,50,100,200,500,200"
# Node 59 random traffic
dtnsim.node[59].app.enable = true
dtnsim.node[59].app.bundlesNumber = "1,9,24,1,24,24,17"
dtnsim.node[59].app.start = "22,50,24,59,44,91,70"
dtnsim.node[59].app.destinationEid = "175,185,152,62,121,37,269"
dtnsim.node[59].app.size = "500,500,100,500,100,50,50"
# Node 60 random traffic
dtnsim.node[60].app.enable = true
dtnsim.node[60].app.bundlesNumber = "12,16,24,14,3,25,2,1,3"
dtnsim.node[60].app.start = "48,16,36,1,38,100,34,12,28"
dtnsim.node[60].app.destinationEid = "236,50,79,31,340,267,57,244,264"
dtnsim.node[60].app.size = "50,100,500,500,100,50,50,500,200"
# Node 61 random traffic
dtnsim.node[61].app.enable = true
dtnsim.node[61].app.bundlesNumber = "5,22,25,11,3,19,12,1,2"
dtnsim.node[61].app.start = "44,10,73,28,82,30,18,39,67"
dtnsim.node[61].app.destinationEid = "22,73,243,167,317,270,247,1,280"
dtnsim.node[61].app.size = "50,200,200,100,100,50,100,500,100"
# Node 62 random traffic
dtnsim.node[62].app.enable = true
dtnsim.node[62].app.bundlesNumber = "16,16,16,11,6,4,5,15,11"
dtnsim.node[62].app.start = "47,8,59,30,100,52,24,76,68"
dtnsim.node[62].app.destinationEid = "41,66,274,243,318,20,336,158,156"
dtnsim.node[62].app.size = "200,100,200,100,200,500,100,50,500"
# Node 63 random traffic
dtnsim.node[63].app.enable = true
dtnsim.node[63].app.bundlesNumber = "13,7,23,12,2,19,2,15,5,1,1"
dtnsim.node[63].app.start = "42,100,90,21,85,25,65,77,84,35,59"
dtnsim.node[63].app.destinationEid = "3,144,353,323,115,340,34,320,61,71,328"
dtnsim.node[63].app.size = "200,100,500,500,200,50,100,100,200,50,500"
# Node 64 random traffic
dtnsim.node[64].app.enable = true
dtnsim.node[64].app.bundlesNumber = "24,21,17,10,3,24,1"
dtnsim.node[64].app.start = "16,66,84,67,16,14,65"
dtnsim.node[64].app.destinationEid = "161,352,360,166,48,124,150"
dtnsim.node[64].app.size = "100,50,50,500,200,200,50"
# Node 65 random traffic
dtnsim.node[65].app.enable = true
dtnsim.node[65].app.bundlesNumber = "7,20,7,1,13,13,6,13,10,9,1"
dtnsim.node[65].app.start = "15,40,72,59,39,16,14,57,75,59,29"
dtnsim.node[65].app.destinationEid = "104,215,136,118,25,220,156,9,170,344,330"
dtnsim.node[65].app.size = "500,500,200,100,50,100,500,50,200,50,200"
# Node 66 random traffic
dtnsim.node[66].app.enable = true
dtnsim.node[66].app.bundlesNumber = "20,12,23,8,2,12,16,1,5,1"
dtnsim.node[66].app.start = "46,90,24,58,23,96,58,89,43,46"
dtnsim.node[66].app.destinationEid = "219,347,141,192,73,43,55,84,341,129"
dtnsim.node[66].app.size = "50,500,100,200,200,100,500,100,500,50"
# Node 67 random traffic
dtnsim.node[67].app.enable = true
dtnsim.node[67].app.bundlesNumber = "9,22,7,21,14,21,3,2,1"
dtnsim.node[67].app.start = "55,13,12,25,94,18,77,8,57"
dtnsim.node[67].app.destinationEid = "252,70,281,140,350,273,314,226,15"
dtnsim.node[67].app.size = "50,500,50,500,200,500,100,500,50"
# Node 68 random traffic
dtnsim.node[68].app.enable = true
dtnsim.node[68].app.bundlesNumber = "6,14,12,14,24,22,7,1"
dtnsim.node[68].app.start = "32,37,45,59,69,57,52,78"
dtnsim.node[68].app.destinationEid = "226,276,28,330,281,104,266,231"
dtnsim.node[68].app.size = "50,50,100,200,500,500,200,100"
# Node 69 random traffic
dtnsim.node[69].app.enable = true
dtnsim.node[69].app.bundlesNumber = "7,18,13,6,10,4,17,12,12,1"
dtnsim.node[69].app.start = "68,73,49,48,30,100,61,51,92,86"
dtnsim.node[69].app.destinationEid = "66,64,226,52,136,93,36,318,327,310"
dtnsim.node[69].app.size = "200,500,500,100,50,50,500,100,500,200"
# Node 70 random traffic
dtnsim.node[70].app.enable = true
dtnsim.node[70].app.bundlesNumber = "13,18,3,6,24,14,13,9"
dtnsim.node[70].app.start = "92,45,24,51,64,33,38,24"
dtnsim.node[70].app.destinationEid = "81,93,43,287,176,144,139,300"
dtnsim.node[70].app.size = "100,500,200,200,100,100,500,200"
# Node 71 random traffic
dtnsim.node[71].app.enable = true
dtnsim.node[71].app.bundlesNumber = "14,11,24,18,18,5,6,2,2"
dtnsim.node[71].app.start = "4,90,88,44,53,81,84,71,28"
dtnsim.node[71].app.destinationEid = "284,250,69,258,64,360,57,331,42"
dtnsim.node[71].app.size = "50,500,200,50,100,100,100,50,100"
# Node 72 random traffic
dtnsim.node[72].app.enable = true
dtnsim.node[72].app.bundlesNumber = "18,13,12,18,10,18,8,1,1,1"
dtnsim.node[72].app.start = "7,92,25,13,63,47,98,64,21,91"
dtnsim.node[72].app.destinationEid = "356,187,140,302,80,29,308,159,83,165"
dtnsim.node[72].app.size = "500,50,200,200,500,100,500,50,50,100"
# Node 73 random traffic
dtnsim.node[73].app.enable = true
dtnsim.node[73].app.bundlesNumber = "23,6,9,8,19,12,17,6"
dtnsim.node[73].app.start = "94,61,76,92,70,61,67,51"
dtnsim.node[73].app.destinationEid = "244,41,245,261,198,300,58,262"
dtnsim.node[73].app.size = "100,200,50,50,200,50,500,50"
# Node 74 random traffic
dtnsim.node[74].app.enable = true
dtnsim.node[74].app.bundlesNumber = "8,21,11,8,9,5,11,23,2,1,1"
dtnsim.node[74].app.start = "57,62,41,19,95,15,9,79,84,10,29"
dtnsim.node[74].app.destinationEid = "267,337,107,114,308,5,129,126,267,330,257"
dtnsim.node[74].app.size = "50,100,50,500,50,200,500,500,50,200,200"
# Node 75 random traffic
dtnsim.node[75].app.enable = true
dtnsim.node[75].app.bundlesNumber = "22,11,10,21,24,7,1,1,1,2"
dtnsim.node[75].app.start = "28,14,14,70,75,21,15,36,74,91"
dtnsim.node[75].app.destinationEid = "127,121,5,206,306,63,270,293,195,95"
dtnsim.node[75].app.size = "200,100,500,50,50,50,200,500,100,100"
# Node 76 random traffic
dtnsim.node[76].app.enable = true
dtnsim.node[76].app.bundlesNumber = "14,16,21,24,23,2"
dtnsim.node[76].app.start = "77,81,51,92,90,93"
dtnsim.node[76].app.destinationEid = "9,162,148,215,310,349"
dtnsim.node[76].app.size = "100,200,200,50,100,500"
# Node 77 random traffic
dtnsim.node[77].app.enable = true
dtnsim.node[77].app.bundlesNumber = "22,4,5,11,24,1,25,1,7"
dtnsim.node[77].app.start = "65,45,67,12,63,18,85,61,75"
dtnsim.node[77].app.destinationEid = "276,251,296,39,357,121,170,112,350"
dtnsim.node[77].app.size = "200,100,500,50,500,200,500,500,100"
# Node 78 random traffic
dtnsim.node[78].app.enable = true
dtnsim.node[78].app.bundlesNumber = "16,18,9,24,11,18,3,1"
dtnsim.node[78].app.start = "35,20,56,1,22,23,29,11"
dtnsim.node[78].app.destinationEid = "135,12,297,222,224,179,281,328"
dtnsim.node[78].app.size = "200,100,100,50,50,200,200,100"
# Node 79 random traffic
dtnsim.node[79].app.enable = true
dtnsim.node[79].app.bundlesNumber = "13,20,8,24,12,17,1,5"
dtnsim.node[79].app.start = "99,65,51,37,49,35,66,91"
dtnsim.node[79].app.destinationEid = "21,91,344,82,315,200,277,333"
dtnsim.node[79].app.size = "200,200,50,200,100,500,500,100"
# Node 80 random traffic
dtnsim.node[80].app.enable = true
dtnsim.node[80].app.bundlesNumber = "13,16,11,6,10,2,4,10,23,2,3"
dtnsim.node[80].app.start = "49,74,74,98,39,83,60,5,82,75,81"
dtnsim.node[80].app.destinationEid = "223,82,88,324,43,17,120,103,212,329,279"
dtnsim.node[80].app.size = "50,500,100,500,200,100,100,50,500,200,500"
# Node 81 random traffic
dtnsim.node[81].app.enable = true
dtnsim.node[81].app.bundlesNumber = "1,15,13,17,10,10,3,7,6,14,3,1"
dtnsim.node[81].app.start = "27,4,36,62,37,22,2,61,3,88,47,5"
dtnsim.node[81].app.destinationEid = "227,163,5,189,155,65,176,349,208,229,355,74"
dtnsim.node[81].app.size = "500,200,50,100,500,200,50,500,500,100,500,200"
# Node 82 random traffic
dtnsim.node[82].app.enable = true
dtnsim.node[82].app.bundlesNumber = "12,20,24,21,9,12,2"
dtnsim.node[82].app.start = "30,94,12,93,50,81,85"
dtnsim.node[82].app.destinationEid = "155,55,321,222,24,31,117"
dtnsim.node[82].app.size = "100,50,200,500,500,500,50"
# Node 83 random traffic
dtnsim.node[83].app.enable = true
dtnsim.node[83].app.bundlesNumber = "21,17,18,7,2,24,6,5"
dtnsim.node[83].app.start = "92,68,94,8,20,61,40,16"
dtnsim.node[83].app.destinationEid = "187,89,257,118,254,31,327,288"
dtnsim.node[83].app.size = "50,50,200,50,500,50,50,500"
# Node 84 random traffic
dtnsim.node[84].app.enable = true
dtnsim.node[84].app.bundlesNumber = "14,20,24,16,19,5,2"
dtnsim.node[84].app.start = "38,61,22,58,87,16,18"
dtnsim.node[84].app.destinationEid = "328,52,124,195,44,1,269"
dtnsim.node[84].app.size = "100,100,50,500,50,50,200"
# Node 85 random traffic
dtnsim.node[85].app.enable = true
dtnsim.node[85].app.bundlesNumber = "16,21,5,5,2,24,6,18,3"
dtnsim.node[85].app.start = "70,36,13,43,82,47,33,51,90"
dtnsim.node[85].app.destinationEid = "296,187,333,63,338,200,357,327,197"
dtnsim.node[85].app.size = "500,50,100,100,100,500,200,200,50"
# Node 86 random traffic
dtnsim.node[86].app.enable = true
dtnsim.node[86].app.bundlesNumber = "23,22,22,2,24,1,3,1,1,1"
dtnsim.node[86].app.start = "79,86,72,51,87,41,85,77,95,75"
dtnsim.node[86].app.destinationEid = "272,250,45,138,50,198,72,20,42,261"
dtnsim.node[86].app.size = "100,50,500,50,50,100,200,200,50,100"
# Node 87 random traffic
dtnsim.node[87].app.enable = true
dtnsim.node[87].app.bundlesNumber = "22,8,19,2,15,14,14,1,5"
dtnsim.node[87].app.start = "40,11,64,49,7,11,25,73,38"
dtnsim.node[87].app.destinationEid = "56,211,198,216,346,335,314,25,9"
dtnsim.node[87].app.size = "50,50,200,100,500,50,50,200,50"
# Node 88 random traffic
dtnsim.node[88].app.enable = true
dtnsim.node[88].app.bundlesNumber = "22,22,11,1,23,13,1,2,2,3"
dtnsim.node[88].app.start = "19,50,44,6,90,27,59,50,36,88"
dtnsim.node[88].app.destinationEid = "175,21,186,291,65,153,132,25,132,143"
dtnsim.node[88].app.size = "200,500,200,100,100,200,100,50,500,100"
# Node 89 random traffic
dtnsim.node[89].app.enable = true
dtnsim.node[89].app.bundlesNumber = "10,15,17,4,5,1,19,25,4"
dtnsim.node[89].app.start = "93,6,50,14,91,60,14,27,49"
dtnsim.node[89].app.destinationEid = "14,190,324,344,276,143,184,281,329"
dtnsim.node[89].app.size = "200,50,500,50,200,500,200,50,100"
# Node 90 random traffic
dtnsim.node[90].app.enable = true
dtnsim.node[90].app.bundlesNumber = "17,18,5,18,5,12,7,7,7,4"
dtnsim.node[90].app.start = "85,13,65,89,6,12,85,49,47,77"
dtnsim.node[90].app.destinationEid = "224,34,181,203,294,188,304,57,171,306"
dtnsim.node[90].app.size = "50,100,500,500,500,100,100,500,100,500"
# Node 91 random traffic
dtnsim.node[91].app.enable = true
dtnsim.node[91].app.bundlesNumber = "12,8,22,2,3,18,10,1,11,10,2,1"
dtnsim.node[91].app.start = "28,52,26,21,79,28,88,83,89,39,80,67"
dtnsim.node[91].app.destinationEid = "69,274,224,86,294,199,302,207,254,130,323,22"
dtnsim.node[91].app.size = "200,50,200,100,500,500,100,50,200,500,200,500"
# Node 92 random traffic
dtnsim.node[92].app.enable = true
dtnsim.node[92].app.bundlesNumber = "11,4,7,22,9,11,7,5,24"
dtnsim.node[92].app.start = "25,5,48,69,96,9,96,99,73"
dtnsim.node[92].app.destinationEid = "88,52,305,186,122,151,319,353,324"
dtnsim.node[92].app.size = "500,200,100,50,100,50,200,50,500"
# Node 93 random traffic
dtnsim.node[93].app.enable = true
dtnsim.node[93].app.bundlesNumber = "25,20,21,17,10,2,2,1,2"
dtnsim.node[93].app.start = "45,96,13,28,38,37,25,23,28"