[General]
network = src.dtnsim										
repeat = 1
allow-object-stealing-on-deletion = true

# Simulation end time
sim-time-limit = 84600s

# Nodes quantity (identifiers (EiDs) matches their index, EiD=0 is ignored)			
dtnsim.nodesNumber = 120
dtnsim.node[*].icon = "satellite"

# Nodes's failure rates
dtnsim.node[*].fault.enable = true
dtnsim.node[*].fault.meanTTF = 190s
dtnsim.node[*].fault.meanTTR = 10s

# Mobility
dtnsim.node[*].hasMobility = true
dtnsim.node[*].norad.satIndex = parentIndex()
dtnsim.node[*].norad.satName = "sat"
**.updateInterval = 20s
**.numOfSats = 120
**.satPerPlane = 10
**.altitude = 540
**.planes = 12
**.phaseOffset = 7

dtnsim.node[*].dtn.routing = "antop"
dtnsim.node[*].dtn.printRoutingDebug = true

# --- Random Traffic Configuration ---
# Node 1 random conversational traffic
dtnsim.node[1].app.enable = true
dtnsim.node[1].app.bundlesNumber = "2,2,4,1,3,4,5,1,5,1,5,4,3,3,5,2,4,2,4,1,5,2,5,2,5,4,4,1,2,3,5,1,5,1,1,4,4,1,5,5,4,1,4,1,4,3,4,3,5,5,5,3,4,3,4,1,5,4,1,1,4,1,3,1,4,4,5,1,4,1,1,4,4,4,2,5,2,4,5,2,3,5,5,5,2,3,4,2,2,3,5,3,3,5,5,1,4,4,1,1"
dtnsim.node[1].app.start = "72,7,40,15,45,93,57,69,50,36,88,12,88,91,51,100,17,7,5,63,95,87,99,7,75,66,12,77,15,52,37,59,1,27,74,14,61,38,48,13,17,59,25,54,63,14,52,77,45,48,22,36,67,2,29,46,22,87,9,1,20,86,40,24,57,30,39,51,22,75,97,28,12,1,100,76,60,45,8,49,9,63,72,58,1,98,58,39,58,43,62,85,20,49,31,63,22,18,24,49"
dtnsim.node[1].app.destinationEid = "2,2,2,2,2,2,2,2,2,2,2,2,2,2,2,2,2,2,2,2,2,2,2,2,2,2,2,2,2,2,2,2,2,2,2,2,2,2,2,2,2,2,2,2,2,2,2,2,2,2,2,2,2,2,2,2,2,2,2,2,2,2,2,2,2,2,2,2,2,2,2,2,2,2,2,2,2,2,2,2,2,2,2,2,2,2,2,2,2,2,2,2,2,2,2,2,2,2,2,2"
dtnsim.node[1].app.size = "500,100,200,100,100,100,50,100,100,50,100,200,200,500,50,50,500,200,100,500,100,50,500,200,100,500,100,50,100,500,500,500,100,100,500,200,50,500,100,200,50,50,200,200,200,500,200,500,50,500,200,200,200,200,100,200,200,200,200,100,200,500,100,50,50,100,500,200,100,50,50,100,50,50,200,50,100,50,100,500,500,500,500,100,200,50,500,200,200,100,100,200,500,200,500,50,50,100,200,50"
# Node 2 random conversational traffic
dtnsim.node[2].app.enable = true
dtnsim.node[2].app.bundlesNumber = "1,5,3,3,5,5,5,1,4,4,5,5,1,4,5,2,4,3,3,4,2,1,4,5,3,2,2,1,2,1,4,2,1,2,2,3,3,5,4,4,3,3,4,3,3,5,2,3,1,1,3,5,5,3,2,1,4,4,3,3,3,2,1,3,3,3,2,5,4,5,1,3,4,5,2,5,2,1,5,3,5,3,5,2,1,3,5,2,3,2,2,1,5,3,4,5,1,1,4,5"
dtnsim.node[2].app.start = "78,50,51,100,59,77,57,42,94,97,57,100,21,100,9,80,25,58,40,65,75,57,18,68,27,56,67,16,55,78,24,73,7,37,48,27,93,12,6,21,64,34,42,59,85,99,16,100,86,48,9,51,11,68,65,10,43,60,44,69,26,59,37,72,28,28,54,78,24,44,36,1,52,55,93,8,20,100,27,77,23,72,80,48,60,79,25,49,46,69,82,4,65,1,34,56,34,34,4,81"
dtnsim.node[2].app.destinationEid = "1,1,1,1,1,1,1,1,1,1,1,1,1,1,1,1,1,1,1,1,1,1,1,1,1,1,1,1,1,1,1,1,1,1,1,1,1,1,1,1,1,1,1,1,1,1,1,1,1,1,1,1,1,1,1,1,1,1,1,1,1,1,1,1,1,1,1,3,3,3,3,3,3,3,3,3,3,3,3,3,3,3,3,3,3,3,3,3,3,3,3,3,3,3,3,3,3,3,3,3"
dtnsim.node[2].app.size = "200,500,50,100,500,50,50,100,500,50,50,50,50,100,50,200,500,200,100,100,100,100,500,500,50,500,500,200,50,50,200,100,50,100,50,100,50,100,500,200,50,200,50,100,100,200,500,200,200,200,100,200,200,50,200,500,100,200,500,200,100,200,500,100,50,200,500,500,200,100,100,100,500,50,200,50,200,50,100,50,100,500,50,50,50,100,200,100,100,500,100,50,50,100,200,100,200,500,500,200"
# Node 3 random conversational traffic
dtnsim.node[3].app.enable = true
dtnsim.node[3].app.bundlesNumber = "2,3,3,2,5,3,4,2,2,4,3,5,4,4,1,2,5,2,5,5,4,5,5,1,3,4,5,3,1,3,5,5,3,5,4,4,4,5,3,1,4,2,1,2,5,1,5,1,3,2,1,4,3,4,1,3,3,5,3,2,1,2,5,1,5,5,3,2,1,3,4,2,4,3,2,3,3,5,5,2,3,5,5,1,1,5,1,1,2,3,1,1,3,3,4,2,2,2,5,2"
dtnsim.node[3].app.start = "43,55,63,16,29,100,36,25,78,82,53,77,85,11,43,59,40,40,88,31,15,100,72,72,41,2,64,73,17,62,67,26,96,66,32,26,81,22,3,99,49,91,17,7,64,7,74,91,20,84,26,69,55,57,86,56,61,11,57,84,45,13,62,29,9,7,28,97,28,9,47,80,60,45,82,23,74,88,85,51,5,98,76,98,94,54,98,20,8,11,74,51,56,71,26,68,98,92,53,18"
dtnsim.node[3].app.destinationEid = "2,2,2,2,2,2,2,2,2,2,2,2,2,2,2,2,2,2,2,4,4,4,4,4,4,4,4,4,4,4,4,4,4,4,4,4,4,4,4,4,4,4,4,4,4,4,4,4,4,4,4,4,4,4,4,4,4,4,4,4,4,4,4,4,4,4,4,4,4,4,4,4,4,4,4,4,4,4,4,4,4,4,4,4,4,4,4,4,4,4,4,4,4,4,4,4,4,4,4,4"
dtnsim.node[3].app.size = "50,200,200,200,50,100,100,500,100,500,100,500,200,50,500,100,200,500,50,500,100,200,500,100,50,50,200,100,200,200,100,100,50,200,100,500,500,100,200,100,500,100,100,200,100,500,50,50,50,50,200,100,100,100,200,100,500,100,100,100,200,200,200,50,200,200,100,500,100,200,500,100,50,500,50,200,50,50,50,500,200,100,50,200,200,50,200,100,200,200,200,200,500,200,50,100,200,50,50,500"
# Node 4 random conversational traffic
dtnsim.node[4].app.enable = true
dtnsim.node[4].app.bundlesNumber = "2,1,4,2,3,1,3,3,1,4,4,3,3,5,4,4,3,4,4,5,4,4,2,1,1,3,1,1,1,3,3,4,5,4,3,1,3,1,4,2,5,3,1,1,1,5,1,2,4,1,2,1,2,1,3,2,3,4,4,5,3,3,5,1,1,5,2,2,5,5,1,3,2,4,3,4,1,1,4,1,5,2,4,1,4,1,3,5,2,2,1,2,2,5,1,4,3,5,4,4"
dtnsim.node[4].app.start = "37,25,100,80,42,5,74,75,20,65,28,71,35,5,100,94,25,67,93,28,91,33,79,63,87,61,66,14,59,64,12,100,37,16,46,85,28,92,12,99,100,59,29,13,14,54,57,80,34,70,100,62,24,53,96,14,71,11,60,54,57,61,36,73,83,12,97,92,91,49,43,24,66,87,11,23,82,5,84,71,87,8,40,40,34,58,33,31,95,43,83,71,64,58,20,42,20,5,32,25"
dtnsim.node[4].app.destinationEid = "3,3,3,3,3,3,3,3,3,3,3,3,3,3,3,3,3,3,3,3,3,3,3,3,3,3,3,3,3,3,3,3,3,3,3,3,3,3,3,3,3,3,3,3,3,3,3,3,3,3,3,3,5,5,5,5,5,5,5,5,5,5,5,5,5,5,5,5,5,5,5,5,5,5,5,5,5,5,5,5,5,5,5,5,5,5,5,5,5,5,5,5,5,5,5,5,5,5,5,5"
dtnsim.node[4].app.size = "200,100,200,50,500,50,100,50,100,50,200,500,200,500,500,50,100,100,200,50,500,100,500,200,500,50,100,500,100,200,200,50,200,50,500,500,500,100,200,100,200,200,100,500,200,500,100,100,200,50,200,200,200,500,50,50,200,100,50,100,200,50,50,100,200,200,100,200,100,200,500,200,100,50,200,100,200,500,500,500,500,100,200,500,50,500,200,500,50,200,100,50,50,100,500,100,200,50,50,500"
# Node 5 random conversational traffic
dtnsim.node[5].app.enable = true
dtnsim.node[5].app.bundlesNumber = "4,5,2,5,1,4,1,1,4,1,3,5,2,4,2,5,4,3,4,4,4,3,4,4,2,1,5,2,1,4,4,5,5,2,1,3,3,1,5,3,4,3,5,5,4,3,3,3,1,5,5,5,4,3,5,1,1,1,3,5,1,2,4,4,2,2,3,5,3,4,3,3,5,4,3,4,1,3,4,5,5,5,4,4,2,5,1,3,5,1,4,1,4,3,2,3,3,4,5,1"
dtnsim.node[5].app.start = "26,54,98,18,78,19,63,71,82,91,15,98,93,93,51,53,32,72,90,24,90,94,79,9,45,44,40,64,35,87,73,22,28,7,31,66,65,9,91,6,96,29,20,92,93,35,1,48,67,32,53,70,90,64,81,20,82,51,96,53,95,38,29,20,9,82,61,52,42,40,99,23,58,66,31,76,33,31,79,17,92,53,91,33,29,22,94,71,51,50,95,14,17,32,20,7,61,38,10,81"
dtnsim.node[5].app.destinationEid = "4,4,4,4,4,4,4,4,4,4,4,4,4,4,4,4,4,4,4,4,4,4,4,4,4,4,4,4,4,4,4,4,4,4,6,6,6,6,6,6,6,6,6,6,6,6,6,6,6,6,6,6,6,6,6,6,6,6,6,6,6,6,6,6,6,6,6,6,6,6,6,6,6,6,6,6,6,6,6,6,6,6,6,6,6,6,6,6,6,6,6,6,6,6,6,6,6,6,6,6"
dtnsim.node[5].app.size = "100,100,200,200,50,100,200,100,500,200,100,200,100,100,500,100,200,500,200,100,200,500,500,200,50,200,200,50,200,100,50,200,500,50,200,200,500,100,50,100,500,500,200,500,200,500,200,500,100,500,500,50,200,50,100,200,500,100,200,200,200,50,200,200,200,500,100,500,500,200,500,50,50,200,100,500,50,50,200,200,50,200,50,100,100,500,50,200,50,100,500,100,200,200,100,50,100,100,200,50"
# Node 6 random conversational traffic
dtnsim.node[6].app.enable = true
dtnsim.node[6].app.bundlesNumber = "3,1,4,5,2,5,4,4,5,1,4,2,2,3,2,5,5,4,5,5,5,5,2,3,2,3,1,1,3,5,5,5,4,1,3,2,2,2,4,3,5,1,1,4,4,3,3,3,5,2,4,1,1,1,2,4,4,1,4,1,1,2,1,3,4,5,3,4,2,3,4,5,1,2,4,5,2,1,4,1,5,2,4,4,2,4,5,4,1,5,2,5,2,2,2,5,5,5,2,2"
dtnsim.node[6].app.start = "70,15,92,11,100,24,99,41,2,55,37,58,76,99,65,85,89,61,58,98,46,88,70,28,34,84,35,39,84,23,97,41,26,96,20,42,8,43,91,44,4,84,63,39,32,59,19,91,81,8,14,18,78,17,42,56,1,66,1,90,87,44,16,75,80,10,46,22,95,84,20,29,90,23,70,83,46,6,64,95,74,7,32,30,28,100,10,31,2,5,88,69,56,85,87,93,83,65,51,48"
dtnsim.node[6].app.destinationEid = "5,5,5,5,5,5,5,5,5,5,5,5,5,5,5,5,5,5,5,5,5,5,5,5,5,5,5,5,5,5,5,5,5,5,5,5,5,5,5,7,7,7,7,7,7,7,7,7,7,7,7,7,7,7,7,7,7,7,7,7,7,7,7,7,7,7,7,7,7,7,7,7,7,7,7,7,7,7,7,7,7,7,7,7,7,7,7,7,7,7,7,7,7,7,7,7,7,7,7,7"
dtnsim.node[6].app.size = "500,200,200,100,500,200,50,100,500,200,200,500,100,100,100,500,100,50,50,50,50,100,100,200,50,100,200,500,200,200,500,500,200,50,200,500,50,100,50,500,200,100,200,200,500,50,50,500,100,500,100,500,100,200,200,100,200,200,500,500,200,50,500,500,500,200,50,50,50,500,100,200,200,500,200,200,50,50,50,500,50,50,50,50,500,50,200,50,200,200,100,500,500,200,100,100,200,50,200,200"
# Node 7 random conversational traffic
dtnsim.node[7].app.enable = true
dtnsim.node[7].app.bundlesNumber = "4,5,2,4,1,3,1,2,4,1,3,3,5,2,3,3,3,5,1,2,3,3,2,3,3,4,4,2,3,5,2,1,2,5,5,3,4,5,4,5,2,3,2,3,3,1,4,1,5,4,5,3,1,1,2,1,1,2,3,4,2,1,3,1,1,3,4,1,2,1,4,4,2,4,5,2,5,3,5,3,4,5,3,2,1,4,2,4,1,5,1,3,5,2,3,4,3,4,5,4"
dtnsim.node[7].app.start = "94,46,64,22,14,82,18,59,7,99,48,18,83,13,48,31,99,85,26,27,73,85,53,68,98,40,36,100,17,13,98,63,86,91,94,86,68,53,56,71,84,86,44,78,90,91,87,37,98,36,48,64,80,72,87,50,65,52,67,10,78,93,12,16,67,35,6,64,73,100,14,30,21,64,19,85,58,14,45,28,53,24,99,75,25,28,36,20,53,9,18,94,49,19,90,98,61,34,69,31"
dtnsim.node[7].app.destinationEid = "6,6,6,6,6,6,6,6,6,6,6,6,6,6,6,6,6,6,6,6,6,6,6,6,6,6,6,6,6,6,6,6,6,6,6,6,6,6,6,8,8,8,8,8,8,8,8,8,8,8,8,8,8,8,8,8,8,8,8,8,8,8,8,8,8,8,8,8,8,8,8,8,8,8,8,8,8,8,8,8,8,8,8,8,8,8,8,8,8,8,8,8,8,8,8,8,8,8,8,8"
dtnsim.node[7].app.size = "50,200,500,100,50,500,200,500,50,500,50,500,200,200,200,100,500,50,200,500,500,50,100,500,200,500,100,500,100,500,50,500,200,500,500,500,100,100,100,50,500,200,200,50,100,100,200,500,100,500,200,500,50,500,100,200,200,100,200,500,100,500,100,500,500,100,100,500,100,50,500,200,100,200,500,500,200,200,50,50,100,500,200,100,100,200,200,100,100,200,50,100,100,100,50,100,500,500,500,200"
# Node 8 random conversational traffic
dtnsim.node[8].app.enable = true
dtnsim.node[8].app.bundlesNumber = "2,5,2,3,4,3,4,3,2,3,5,3,3,4,3,3,3,2,1,2,5,1,5,2,1,5,2,1,5,3,3,4,5,2,3,1,1,2,5,4,1,1,4,5,3,2,2,5,5,5,2,2,1,2,2,3,4,4,4,2,1,5,4,3,4,4,2,4,5,5,1,5,1,4,4,4,2,2,1,1,3,2,1,4,2,1,1,5,2,1,1,5,5,5,2,1,1,3,3,1"
dtnsim.node[8].app.start = "93,48,95,99,46,99,45,52,69,89,58,66,58,20,82,17,70,37,13,74,78,100,36,86,29,56,25,100,84,43,58,16,20,97,37,33,89,61,55,83,61,81,94,94,8,42,26,65,16,94,32,85,5,23,22,66,78,74,6,29,14,76,77,22,6,79,16,3,81,74,85,16,88,74,60,97,70,13,45,2,36,3,98,19,62,22,26,21,15,96,54,84,11,4,43,35,1,40,11,88"
dtnsim.node[8].app.destinationEid = "7,7,7,7,7,7,7,7,7,7,7,7,7,7,7,7,7,7,7,7,7,7,7,7,7,7,7,7,7,7,7,7,7,7,7,7,9,9,9,9,9,9,9,9,9,9,9,9,9,9,9,9,9,9,9,9,9,9,9,9,9,9,9,9,9,9,9,9,9,9,9,9,9,9,9,9,9,9,9,9,9,9,9,9,9,9,9,9,9,9,9,9,9,9,9,9,9,9,9,9"
dtnsim.node[8].app.size = "50,200,200,200,500,100,100,100,500,100,500,200,500,50,50,50,200,50,200,50,200,50,50,200,50,200,50,50,500,200,500,50,100,50,50,50,500,100,100,100,100,50,500,500,500,50,100,50,500,100,100,100,100,100,100,100,200,500,100,100,50,200,50,200,500,50,100,200,500,100,500,200,200,50,50,100,100,100,500,200,50,500,50,200,50,200,200,100,500,500,500,500,50,100,100,100,500,100,500,200"
# Node 9 random conversational traffic
dtnsim.node[9].app.enable = true
dtnsim.node[9].app.bundlesNumber = "5,4,2,2,2,5,2,5,1,3,2,1,5,5,1,2,4,1,3,4,2,5,1,5,3,1,3,3,2,1,2,5,4,4,2,5,1,1,3,2,5,3,3,1,5,2,4,3,4,1,4,3,4,1,4,3,5,2,5,4,1,4,5,4,1,2,5,3,4,2,1,3,3,2,2,4,5,3,1,2,2,3,3,2,4,2,5,2,2,4,3,4,3,3,2,5,1,3,1,1"
dtnsim.node[9].app.start = "64,65,87,99,98,17,49,100,39,93,11,80,11,86,83,88,88,82,90,65,100,78,19,37,7,99,63,28,28,58,90,21,49,20,94,31,66,78,71,70,77,73,77,27,6,98,51,88,44,36,77,40,52,54,46,29,64,9,34,52,39,68,53,46,63,23,36,7,44,10,63,39,24,32,72,57,31,71,86,36,35,61,43,96,82,47,95,36,80,46,2,65,72,70,65,30,49,27,87,40"
dtnsim.node[9].app.destinationEid = "8,8,8,8,8,8,8,8,8,8,8,8,8,8,8,8,8,8,8,8,8,8,8,8,8,8,8,8,8,8,8,8,8,8,8,10,10,10,10,10,10,10,10,10,10,10,10,10,10,10,10,10,10,10,10,10,10,10,10,10,10,10,10,10,10,10,10,10,10,10,10,10,10,10,10,10,10,10,10,10,10,10,10,10,10,10,10,10,10,10,10,10,10,10,10,10,10,10,10,10"
dtnsim.node[9].app.size = "100,500,100,100,50,200,500,100,50,50,500,100,50,50,200,50,500,100,100,200,200,50,50,50,500,200,500,100,100,50,200,50,200,500,100,100,500,200,500,50,500,200,500,100,500,500,50,50,100,100,200,50,100,200,100,100,50,200,100,200,50,200,200,200,200,200,200,500,50,500,100,100,500,500,500,100,500,500,200,200,200,50,500,500,50,100,50,200,50,100,50,100,100,200,50,500,500,200,200,200"
# Node 10 random conversational traffic
dtnsim.node[10].app.enable = true
dtnsim.node[10].app.bundlesNumber = "5,4,2,2,1,3,3,4,1,5,3,1,3,1,1,2,4,2,1,1,4,2,2,1,2,3,1,3,2,5,5,5,4,2,1,1,1,1,4,2,1,2,1,2,2,4,3,3,5,3,5,5,2,1,3,3,1,1,5,5,5,3,1,4,1,3,1,5,5,3,3,4,4,4,3,4,5,4,3,3,4,4,3,5,4,1,4,1,1,1,1,4,3,5,5,2,5,4,3,2"
dtnsim.node[10].app.start = "73,85,75,83,36,13,100,56,45,84,55,57,55,17,41,44,56,29,46,11,67,42,32,37,78,35,93,41,70,49,99,85,100,89,47,76,39,55,30,50,61,32,3,25,93,59,75,39,27,100,89,63,16,90,95,52,8,90,8,95,36,74,64,37,7,62,76,50,53,19,49,46,6,1,86,83,47,80,66,94,76,51,65,32,73,32,77,99,98,35,90,55,100,17,31,8,38,62,72,80"
dtnsim.node[10].app.destinationEid = "9,9,9,9,9,9,9,9,9,9,9,9,9,9,9,9,9,9,9,9,9,9,9,9,9,9,9,9,9,9,9,9,9,9,9,9,9,9,9,9,11,11,11,11,11,11,11,11,11,11,11,11,11,11,11,11,11,11,11,11,11,11,11,11,11,11,11,11,11,11,11,11,11,11,11,11,11,11,11,11,11,11,11,11,11,11,11,11,11,11,11,11,11,11,11,11,11,11,11,11"
dtnsim.node[10].app.size = "200,100,200,50,100,50,500,50,50,50,50,50,100,100,500,200,100,200,200,200,500,100,100,100,200,200,200,100,200,100,200,500,200,500,500,100,100,500,200,50,50,100,200,50,50,200,100,100,500,100,500,100,100,500,50,200,100,100,100,200,50,50,50,200,500,500,500,100,200,200,500,50,50,200,200,500,50,200,500,50,500,50,200,200,500,50,100,50,500,500,200,100,500,500,500,50,500,50,200,200"
# Node 11 random conversational traffic
dtnsim.node[11].app.enable = true
dtnsim.node[11].app.bundlesNumber = "4,5,4,1,1,5,3,4,5,4,5,5,4,1,3,4,3,2,3,2,4,3,4,1,1,2,2,3,1,1,4,5,5,2,4,1,5,4,1,3,4,4,2,5,4,4,4,1,2,4,5,2,1,5,4,3,4,5,4,3,1,3,4,3,5,3,2,2,5,5,4,1,3,5,3,5,5,5,1,1,3,4,5,5,1,5,3,3,1,2,2,4,1,1,4,3,1,3,4,5"
dtnsim.node[11].app.start = "12,27,63,47,31,100,22,98,61,12,91,15,46,80,66,38,81,24,52,54,4,88,52,86,76,97,38,86,100,44,18,33,77,87,75,60,7,71,78,84,42,3,87,37,86,29,77,63,74,37,97,2,44,29,22,67,17,6,51,20,24,56,15,32,54,77,97,91,72,94,100,29,4,15,3,66,98,4,13,50,18,41,94,17,34,86,17,33,2,26,40,85,94,98,70,51,24,94,60,10"
dtnsim.node[11].app.destinationEid = "10,10,10,10,10,10,10,10,10,10,10,10,10,10,10,10,10,10,10,10,10,10,10,10,10,10,10,10,10,10,10,10,10,10,12,12,12,12,12,12,12,12,12,12,12,12,12,12,12,12,12,12,12,12,12,12,12,12,12,12,12,12,12,12,12,12,12,12,12,12,12,12,12,12,12,12,12,12,12,12,12,12,12,12,12,12,12,12,12,12,12,12,12,12,12,12,12,12,12,12"
dtnsim.node[11].app.size = "50,100,200,500,500,200,100,100,200,500,50,200,200,100,50,500,500,100,100,200,50,100,200,100,200,500,500,50,200,100,100,100,50,500,100,500,200,100,50,500,50,500,500,100,500,200,100,100,50,500,50,200,500,50,100,500,500,500,200,50,200,100,500,50,200,100,100,200,500,100,100,200,50,50,100,50,500,100,100,100,500,50,50,500,100,100,50,100,200,200,100,100,100,500,200,100,200,100,500,50"
# Node 12 random conversational traffic
dtnsim.node[12].app.enable = true
dtnsim.node[12].app.bundlesNumber = "2,3,1,5,2,4,3,1,5,1,1,2,2,5,2,1,3,5,1,5,1,5,5,1,5,1,4,2,3,3,2,3,4,5,5,5,5,4,2,2,3,5,4,4,1,1,2,5,4,4,1,3,1,5,4,3,2,2,3,3,1,3,5,5,5,5,5,5,4,3,1,5,3,3,4,5,1,4,2,1,5,3,5,5,1,3,5,3,4,3,2,4,2,1,2,2,1,2,4,3"
dtnsim.node[12].app.start = "78,65,9,47,6,96,89,37,83,12,52,26,10,34,24,42,60,86,96,77,99,100,37,14,19,12,72,99,8,96,42,19,41,8,33,50,93,100,99,76,54,25,99,63,68,27,13,7,39,26,8,18,38,46,76,61,4,75,74,79,80,55,81,61,23,72,22,32,84,98,20,67,1,60,39,94,9,77,60,43,56,25,19,27,2,47,16,64,27,5,23,43,29,75,58,13,17,63,83,97"
dtnsim.node[12].app.destinationEid = "11,11,11,11,11,11,11,11,11,11,11,11,11,11,11,11,11,11,11,11,11,11,11,11,11,11,11,11,11,11,11,11,11,11,11,11,11,11,11,11,11,11,11,11,13,13,13,13,13,13,13,13,13,13,13,13,13,13,13,13,13,13,13,13,13,13,13,13,13,13,13,13,13,13,13,13,13,13,13,13,13,13,13,13,13,13,13,13,13,13,13,13,13,13,13,13,13,13,13,13"
dtnsim.node[12].app.size = "50,500,200,50,500,500,100,100,100,500,200,50,200,500,200,200,500,200,500,50,100,50,200,50,200,100,50,100,50,50,100,100,500,500,200,50,100,500,500,200,500,200,500,50,100,500,100,200,100,200,500,500,50,50,100,500,200,200,100,500,100,500,100,200,200,200,500,500,100,200,200,50,100,500,50,50,50,100,200,50,500,200,50,50,500,500,100,500,50,500,500,200,100,100,100,500,500,50,50,50"
# Node 13 random conversational traffic
dtnsim.node[13].app.enable = true
dtnsim.node[13].app.bundlesNumber = "3,5,3,3,5,2,2,4,1,5,1,5,5,1,2,3,2,1,2,1,5,1,1,5,2,3,2,4,5,2,1,5,5,4,4,1,3,1,5,2,2,3,5,5,2,1,1,4,1,4,3,4,3,3,5,4,4,4,1,4,2,4,5,3,3,2,5,5,1,1,2,1,4,4,5,3,3,4,5,5,5,5,1,4,5,1,4,3,1,5,3,1,3,2,5,4,4,1,1,1"
dtnsim.node[13].app.start = "76,22,14,46,28,51,85,13,80,87,65,85,69,24,73,27,33,100,3,95,10,78,63,20,29,11,49,26,73,29,14,25,51,14,73,99,14,70,68,74,50,3,29,89,87,11,63,69,12,54,42,76,40,48,29,74,79,37,14,81,43,28,50,100,90,23,99,11,78,96,88,98,28,75,21,51,92,33,46,73,13,22,99,80,69,3,7,26,11,51,28,15,52,5,46,2,57,74,86,60"
dtnsim.node[13].app.destinationEid = "12,12,12,12,12,12,12,12,12,12,12,12,12,12,12,12,12,12,12,12,12,12,12,12,12,12,12,12,12,12,12,12,12,12,12,12,14,14,14,14,14,14,14,14,14,14,14,14,14,14,14,14,14,14,14,14,14,14,14,14,14,14,14,14,14,14,14,14,14,14,14,14,14,14,14,14,14,14,14,14,14,14,14,14,14,14,14,14,14,14,14,14,14,14,14,14,14,14,14,14"
dtnsim.node[13].app.size = "200,100,50,50,500,500,100,50,500,500,50,200,100,500,200,100,100,100,50,100,200,500,500,100,100,100,100,200,200,100,100,100,100,100,50,500,200,200,50,100,500,200,50,50,50,50,100,200,500,500,200,500,500,100,500,100,500,200,200,200,500,100,200,500,50,500,200,50,200,500,500,100,200,50,500,500,50,500,50,200,200,100,100,50,100,50,50,500,500,200,200,50,200,100,100,500,500,100,500,50"
# Node 14 random conversational traffic
dtnsim.node[14].app.enable = true
dtnsim.node[14].app.bundlesNumber = "5,4,3,1,2,1,1,2,4,3,3,1,3,2,5,1,4,1,2,2,5,4,5,2,3,5,1,1,4,5,2,4,5,3,5,4,5,5,1,2,4,3,2,3,1,1,4,1,2,1,5,1,3,3,4,5,2,2,1,4,2,4,2,2,2,2,5,2,5,4,2,5,1,2,4,4,1,5,3,5,1,3,1,2,5,2,1,1,4,3,5,1,4,1,5,4,3,1,2,5"
dtnsim.node[14].app.start = "18,74,73,57,95,96,70,16,64,47,86,52,83,46,16,85,50,31,100,24,100,81,100,99,77,29,57,99,34,47,78,11,21,61,31,25,56,12,51,5,65,77,93,71,18,24,69,49,27,54,44,31,69,53,59,35,76,76,37,67,68,51,98,28,96,79,76,41,44,62,71,26,96,26,73,8,12,51,30,14,69,30,11,70,54,11,53,24,61,62,40,58,62,34,7,22,88,33,79,15"
dtnsim.node[14].app.destinationEid = "13,13,13,13,13,13,13,13,13,13,13,13,13,13,13,13,13,13,13,13,13,13,13,13,13,13,13,13,13,13,13,13,13,13,13,13,13,13,13,13,13,13,13,15,15,15,15,15,15,15,15,15,15,15,15,15,15,15,15,15,15,15,15,15,15,15,15,15,15,15,15,15,15,15,15,15,15,15,15,15,15,15,15,15,15,15,15,15,15,15,15,15,15,15,15,15,15,15,15,15"
dtnsim.node[14].app.size = "100,200,100,50,50,200,50,50,50,200,100,500,100,500,100,100,200,100,100,200,50,100,50,500,50,500,500,200,100,50,500,500,500,100,100,50,200,100,200,50,500,500,500,500,50,100,50,100,100,100,50,200,50,500,200,200,50,500,500,500,50,500,200,200,50,50,500,500,50,200,50,100,50,200,200,100,500,100,500,100,100,500,200,200,100,500,100,200,50,100,200,100,200,200,100,500,100,500,100,200"
# Node 15 random conversational traffic
dtnsim.node[15].app.enable = true
dtnsim.node[15].app.bundlesNumber = "3,2,1,1,3,3,1,5,2,3,5,3,5,3,4,3,4,5,2,5,3,4,1,3,4,4,2,5,5,4,2,5,2,2,2,1,5,1,5,5,3,1,4,3,2,5,5,5,3,2,5,1,3,5,3,1,5,1,1,2,3,3,1,5,2,1,1,4,4,4,5,5,1,3,3,4,3,2,1,1,3,2,3,1,5,4,1,2,5,3,2,1,2,3,1,3,5,1,4,1"
dtnsim.node[15].app.start = "34,77,37,45,71,60,81,83,45,73,100,99,71,100,52,40,22,77,26,62,41,64,65,40,32,34,57,7,49,26,66,15,43,36,55,99,82,35,17,98,92,90,17,91,95,26,34,7,36,5,97,69,93,28,18,49,69,41,72,8,61,45,60,11,29,20,61,73,18,19,48,66,30,26,73,36,50,82,72,7,47,92,15,40,58,95,63,38,84,3,87,61,71,81,60,70,98,76,76,66"
dtnsim.node[15].app.destinationEid = "14,14,14,14,14,14,14,14,14,14,14,14,14,14,14,14,14,14,14,14,14,14,14,14,14,14,16,16,16,16,16,16,16,16,16,16,16,16,16,16,16,16,16,16,16,16,16,16,16,16,16,16,16,16,16,16,16,16,16,16,16,16,16,16,16,16,16,16,16,16,16,16,16,16,16,16,16,16,16,16,16,16,16,16,16,16,16,16,16,16,16,16,16,16,16,16,16,16,16,16"
dtnsim.node[15].app.size = "100,100,500,200,100,200,50,500,50,200,50,100,500,200,200,200,50,200,50,200,500,100,200,500,100,50,100,50,200,50,500,500,50,100,500,50,100,100,50,200,500,50,50,500,500,50,50,100,100,200,50,100,500,200,500,500,100,200,100,50,500,100,200,200,200,200,200,500,500,50,200,200,500,500,200,200,50,50,50,500,50,100,50,50,50,500,200,200,50,50,200,100,100,50,200,200,50,100,500,50"
# Node 16 random conversational traffic
dtnsim.node[16].app.enable = true
dtnsim.node[16].app.bundlesNumber = "3,2,3,3,4,4,1,4,2,5,5,5,5,1,1,3,3,1,5,1,4,5,3,4,3,1,4,4,5,2,5,2,5,1,2,4,5,3,1,2,1,5,1,4,1,4,1,5,2,4,1,3,4,5,5,2,5,4,2,5,1,1,4,2,1,1,4,2,5,1,3,2,4,5,4,1,1,5,3,2,5,5,3,1,1,5,4,2,3,2,3,4,3,3,4,1,2,3,3,4"
dtnsim.node[16].app.start = "16,30,72,46,57,100,91,99,96,97,31,36,40,77,98,34,51,45,49,66,36,26,68,20,29,55,36,82,42,91,94,66,100,65,91,4,67,78,90,67,80,78,4,21,51,98,57,75,69,69,10,98,62,63,42,81,20,11,71,59,15,50,80,2,12,53,44,97,88,64,49,8,58,35,74,85,5,74,84,83,82,10,90,75,48,95,75,56,58,59,63,37,90,26,61,97,86,82,56,39"
dtnsim.node[16].app.destinationEid = "15,15,15,15,15,15,15,15,15,15,15,15,15,15,15,15,15,15,15,15,15,15,15,15,15,15,15,15,15,15,15,15,15,15,15,15,15,15,15,15,15,17,17,17,17,17,17,17,17,17,17,17,17,17,17,17,17,17,17,17,17,17,17,17,17,17,17,17,17,17,17,17,17,17,17,17,17,17,17,17,17,17,17,17,17,17,17,17,17,17,17,17,17,17,17,17,17,17,17,17"
dtnsim.node[16].app.size = "200,500,50,500,100,100,50,100,200,200,500,100,200,50,50,500,50,200,100,50,50,50,50,200,50,50,100,100,100,50,100,100,50,200,50,50,100,100,100,200,100,100,200,50,500,200,500,100,100,200,100,100,50,50,100,100,500,200,200,200,50,100,500,50,50,500,500,50,200,100,50,50,500,50,50,100,100,200,200,50,500,100,100,50,200,100,500,500,50,50,500,500,500,500,100,50,100,50,500,500"
# Node 17 random conversational traffic
dtnsim.node[17].app.enable = true
dtnsim.node[17].app.bundlesNumber = "1,3,2,2,4,1,4,1,4,1,3,5,3,3,1,1,5,2,1,2,5,3,2,3,5,5,1,1,3,5,2,5,2,5,2,1,2,5,1,5,3,3,2,5,5,1,3,5,1,1,3,4,4,5,2,5,3,1,4,4,3,3,5,4,1,3,4,1,1,3,5,4,2,4,1,2,5,1,1,2,2,5,1,4,1,2,1,5,5,2,5,1,4,1,3,2,5,4,5,2"
dtnsim.node[17].app.start = "22,57,100,79,70,75,19,64,69,46,88,19,78,65,58,89,3,60,49,99,71,51,13,44,83,86,7,89,92,85,14,94,56,97,65,66,64,71,31,98,91,92,48,52,82,41,26,40,31,24,60,97,13,86,78,97,27,33,92,27,27,95,12,30,49,35,96,61,59,75,48,30,13,97,24,49,77,68,89,19,63,97,25,54,90,77,74,99,2,49,36,58,85,65,87,46,29,31,54,51"
dtnsim.node[17].app.destinationEid = "16,16,16,16,16,16,16,16,16,16,16,16,16,16,16,16,16,16,16,16,16,16,16,16,16,16,16,16,16,16,16,16,16,16,16,16,16,16,16,16,16,16,16,18,18,18,18,18,18,18,18,18,18,18,18,18,18,18,18,18,18,18,18,18,18,18,18,18,18,18,18,18,18,18,18,18,18,18,18,18,18,18,18,18,18,18,18,18,18,18,18,18,18,18,18,18,18,18,18,18"
dtnsim.node[17].app.size = "100,200,100,500,500,50,100,200,200,500,200,200,100,500,500,100,50,200,200,200,50,200,50,50,50,500,500,200,100,500,50,200,50,200,500,500,200,200,50,500,200,200,200,500,100,50,100,50,200,500,100,50,100,500,100,100,500,500,500,50,200,50,50,100,200,200,500,100,500,200,100,100,200,50,50,200,200,500,500,50,50,50,100,200,100,50,100,500,100,200,100,100,100,100,500,50,100,50,200,200"
# Node 18 random conversational traffic
dtnsim.node[18].app.enable = true
dtnsim.node[18].app.bundlesNumber = "4,4,5,4,3,5,5,2,4,4,1,1,5,4,4,5,2,3,5,2,5,5,4,5,5,5,4,3,4,5,2,1,3,5,3,3,3,3,2,5,2,3,3,3,3,1,1,4,1,4,5,2,5,4,2,3,5,1,2,1,4,5,4,5,2,3,4,2,3,1,3,1,1,4,4,4,2,1,5,3,5,4,5,5,1,5,5,2,3,3,4,1,1,5,2,2,1,1,1,2"
dtnsim.node[18].app.start = "61,88,28,34,66,98,22,100,42,93,30,35,17,31,58,38,79,19,100,26,50,82,74,28,73,94,80,100,8,93,89,38,57,16,84,66,23,55,35,75,64,67,63,75,7,91,66,36,58,51,74,77,61,50,36,67,10,19,79,56,15,79,38,30,74,56,86,40,58,70,76,7,79,49,92,76,73,30,81,72,58,98,50,94,7,2,62,10,12,39,26,90,17,89,48,1,21,46,71,64"
dtnsim.node[18].app.destinationEid = "17,17,17,17,17,17,17,17,17,17,17,17,17,17,17,17,17,17,17,17,17,17,17,17,17,17,17,17,17,17,17,17,17,19,19,19,19,19,19,19,19,19,19,19,19,19,19,19,19,19,19,19,19,19,19,19,19,19,19,19,19,19,19,19,19,19,19,19,19,19,19,19,19,19,19,19,19,19,19,19,19,19,19,19,19,19,19,19,19,19,19,19,19,19,19,19,19,19,19,19"
dtnsim.node[18].app.size = "200,100,500,500,200,500,50,100,200,50,50,500,200,500,100,200,500,100,200,200,100,200,50,50,200,200,100,200,50,100,50,200,200,50,50,100,500,50,500,500,200,200,200,100,50,200,200,100,200,100,200,50,500,500,200,500,100,100,500,100,200,100,200,200,500,50,100,500,100,50,50,50,500,100,50,50,200,100,50,50,100,200,50,100,50,50,200,500,200,100,50,50,200,500,100,500,50,50,50,50"
# Node 19 random conversational traffic
dtnsim.node[19].app.enable = true
dtnsim.node[19].app.bundlesNumber = "1,3,3,1,3,2,3,4,3,4,1,1,4,4,4,2,5,2,4,3,1,4,1,2,5,4,2,5,1,2,2,3,4,5,2,1,3,5,1,5,3,2,4,3,3,3,4,1,1,3,4,5,3,2,3,4,2,4,4,2,1,5,3,4,4,1,4,4,2,4,4,1,1,3,5,5,2,5,2,5,4,5,1,4,2,4,3,4,2,2,5,5,4,2,5,3,2,4,4,4"
dtnsim.node[19].app.start = "21,28,56,38,78,67,72,67,79,98,71,65,61,65,53,46,69,17,22,87,87,46,32,79,60,66,73,85,50,93,82,34,91,82,60,4,69,16,18,41,32,20,97,2,31,51,74,25,26,76,8,28,65,34,85,33,75,51,84,21,40,17,60,52,68,53,19,56,95,25,65,85,1,25,100,59,7,12,60,93,16,11,23,51,95,5,100,89,29,2,90,7,23,24,48,79,19,23,67,87"
dtnsim.node[19].app.destinationEid = "18,18,18,18,18,18,18,18,18,18,18,18,18,18,18,18,18,18,18,18,18,18,18,18,18,18,18,18,18,18,18,18,18,18,18,18,18,18,18,18,18,18,18,18,18,18,18,20,20,20,20,20,20,20,20,20,20,20,20,20,20,20,20,20,20,20,20,20,20,20,20,20,20,20,20,20,20,20,20,20,20,20,20,20,20,20,20,20,20,20,20,20,20,20,20,20,20,20,20,20"
dtnsim.node[19].app.size = "100,100,500,50,50,200,500,50,100,50,100,50,500,100,200,200,200,100,50,500,500,500,100,50,50,100,100,500,50,50,100,200,500,100,50,50,500,100,100,200,500,100,500,100,50,500,200,200,100,500,50,100,500,100,100,50,50,500,100,100,200,50,200,50,100,200,100,100,50,100,100,100,100,100,100,500,200,500,100,100,100,500,200,50,500,500,50,500,500,500,50,100,50,200,100,50,500,500,50,500"
# Node 20 random conversational traffic
dtnsim.node[20].app.enable = true
dtnsim.node[20].app.bundlesNumber = "1,4,1,5,2,4,3,3,4,1,4,2,3,1,1,5,2,2,1,4,5,4,1,3,3,3,1,3,1,5,2,1,3,4,1,2,5,3,5,5,2,5,4,1,1,2,4,4,4,2,1,3,4,3,1,1,1,5,3,1,3,5,1,1,1,2,2,3,5,2,3,4,3,5,4,3,3,1,2,3,2,1,5,3,3,4,2,1,1,3,1,2,5,4,3,2,2,2,1,1"
dtnsim.node[20].app.start = "27,82,12,70,43,94,34,55,93,46,26,58,76,58,98,66,88,2,32,100,67,14,15,61,99,100,11,39,5,92,11,86,28,4,49,50,58,72,92,14,7,96,5,56,90,26,30,32,3,72,57,82,76,19,72,94,6,49,65,39,65,29,10,1,42,81,19,92,6,35,49,100,91,4,85,73,8,92,30,90,28,49,53,91,54,52,27,92,46,38,98,52,87,58,6,24,88,16,37,83"
dtnsim.node[20].app.destinationEid = "19,19,19,19,19,19,19,19,19,19,19,19,19,19,19,19,19,19,19,19,19,19,19,19,19,19,19,19,19,19,19,19,19,21,21,21,21,21,21,21,21,21,21,21,21,21,21,21,21,21,21,21,21,21,21,21,21,21,21,21,21,21,21,21,21,21,21,21,21,21,21,21,21,21,21,21,21,21,21,21,21,21,21,21,21,21,21,21,21,21,21,21,21,21,21,21,21,21,21,21"
dtnsim.node[20].app.size = "500,500,500,100,100,200,50,50,500,50,200,500,500,100,50,200,200,100,100,500,500,500,200,100,100,500,500,100,50,100,200,200,200,100,50,500,100,100,50,500,200,500,200,50,100,500,200,200,100,100,200,200,100,500,200,500,200,50,500,500,100,200,100,100,50,50,200,50,100,200,100,500,100,200,50,200,100,100,200,100,50,500,500,500,50,500,50,200,200,500,500,100,500,100,500,100,100,500,50,100"
# Node 21 random conversational traffic
dtnsim.node[21].app.enable = true
dtnsim.node[21].app.bundlesNumber = "5,2,5,5,1,3,4,2,1,1,2,3,2,2,5,1,4,3,4,3,4,1,2,5,3,4,4,3,4,1,3,2,3,5,4,3,5,1,2,2,4,5,3,2,5,5,3,4,2,5,4,5,3,1,5,3,4,4,3,4,3,1,3,3,4,1,2,3,3,1,4,2,3,1,5,2,1,1,4,1,3,5,3,3,1,3,4,3,5,5,3,3,5,5,2,3,4,3,2,3"
dtnsim.node[21].app.start = "59,98,20,16,14,64,4,80,82,53,41,35,17,47,85,28,54,100,96,76,10,31,57,57,95,53,94,55,99,61,66,9,92,42,89,75,10,6,25,50,97,3,31,11,87,90,82,27,15,55,64,40,29,23,2,48,29,90,26,92,38,53,52,47,78,31,74,44,16,8,6,71,60,8,31,21,6,18,96,34,68,12,74,63,68,58,31,73,8,70,63,1,6,17,3,43,60,16,28,99"
dtnsim.node[21].app.destinationEid = "20,20,20,20,20,20,20,20,20,20,20,20,20,20,20,20,20,20,20,20,20,20,20,20,20,20,20,20,20,20,20,20,20,20,20,22,22,22,22,22,22,22,22,22,22,22,22,22,22,22,22,22,22,22,22,22,22,22,22,22,22,22,22,22,22,22,22,22,22,22,22,22,22,22,22,22,22,22,22,22,22,22,22,22,22,22,22,22,22,22,22,22,22,22,22,22,22,22,22,22"
dtnsim.node[21].app.size = "200,100,500,100,500,50,200,500,50,100,50,100,200,500,200,100,50,50,200,200,500,50,200,50,200,100,500,200,500,100,50,100,50,200,500,500,500,100,200,500,500,500,200,50,50,100,200,200,50,500,500,100,200,200,50,500,200,50,100,500,100,200,500,500,50,500,200,50,100,200,100,50,500,50,50,200,50,200,200,50,50,100,100,500,50,50,500,50,200,50,100,50,100,100,100,100,50,200,50,100"
# Node 22 random conversational traffic
dtnsim.node[22].app.enable = true
dtnsim.node[22].app.bundlesNumber = "5,1,4,4,3,3,4,4,3,5,5,4,1,5,2,2,3,4,4,1,4,5,3,1,5,5,3,1,1,3,5,5,1,2,1,4,5,3,1,1,5,1,5,5,3,3,3,1,3,5,4,1,2,5,3,2,4,4,5,5,1,4,4,1,1,4,5,2,4,4,4,4,1,4,2,2,4,4,5,4,1,2,3,4,2,4,3,1,2,2,5,2,3,3,2,2,5,2,4,4"
dtnsim.node[22].app.start = "80,17,13,33,99,85,20,68,43,26,5,51,27,97,44,55,54,82,33,84,13,67,15,12,27,74,18,81,77,38,83,16,3,8,22,5,50,62,23,29,100,98,49,69,94,35,76,71,55,61,29,44,73,76,47,39,40,11,69,4,93,32,54,49,59,34,75,22,77,81,90,23,70,46,47,30,57,63,23,48,98,53,18,34,21,41,20,26,5,90,1,23,66,40,59,78,90,25,49,92"
dtnsim.node[22].app.destinationEid = "21,21,21,21,21,21,21,21,21,21,21,21,21,21,21,21,21,21,21,21,21,21,21,21,21,21,21,21,21,21,21,21,21,21,21,21,21,21,21,21,21,23,23,23,23,23,23,23,23,23,23,23,23,23,23,23,23,23,23,23,23,23,23,23,23,23,23,23,23,23,23,23,23,23,23,23,23,23,23,23,23,23,23,23,23,23,23,23,23,23,23,23,23,23,23,23,23,23,23,23"