[General]
network = src.dtnsim										
repeat = 1
allow-object-stealing-on-deletion = true

# Simulation end time
sim-time-limit = 84600s

# Nodes quantity (identifiers (EiDs) matches their index, EiD=0 is ignored)			
dtnsim.nodesNumber = 120
dtnsim.node[*].icon = "satellite"

# Nodes's failure rates
dtnsim.node[*].fault.enable = false
dtnsim.node[*].fault.meanTTF = 0s
dtnsim.node[*].fault.meanTTR = 0s

# Mobility
dtnsim.node[*].hasMobility = true
dtnsim.node[*].noradModule.satIndex = parentIndex()
dtnsim.node[*].noradModule.satName = "sat"
**.updateInterval = 20s
**.numOfSats = 120
**.satPerPlane = 10
**.altitude = 540
**.planes = 12
**.phaseOffset = 7

dtnsim.node[*].dtn.routing = "antop"
dtnsim.node[*].dtn.printRoutingDebug = true

# --- Random Traffic Configuration ---
# Node 1 random conversational traffic
dtnsim.node[1].app.enable = true
dtnsim.node[1].app.bundlesNumber = "2,4,3,2,5,3,5,5,2,3,3,1,4,1,5,1,5,2,5,2,1,3,4,3,4,3,1,4,4,1,1,3,3,2,4,5,2,1,3,5,4,5,5,2,4,5,2,4,5,1,3,4,4,3,2,2,1,4,2,3,3,1,3,2,5,3,4,1,4,2,5,2,2,1,3,2,4,4,2,2,4,4,5,4,3,3,5,2,2,4,2,5,5,3,3,2,3,4,4,5"
dtnsim.node[1].app.start = "18,5,3,19,10,17,10,13,10,13,13,4,8,13,16,6,3,10,6,16,8,13,14,14,16,13,5,19,18,16,19,2,7,8,14,15,3,8,5,1,9,14,15,4,18,14,6,9,12,2,7,1,3,2,8,13,20,9,6,3,9,14,15,18,16,10,4,18,18,9,13,17,13,4,11,10,6,4,8,13,11,11,6,13,19,17,7,18,17,15,3,6,18,16,16,3,19,12,17,7"
dtnsim.node[1].app.destinationEid = "2,2,2,2,2,2,2,2,2,2,2,2,2,2,2,2,2,2,2,2,2,2,2,2,2,2,2,2,2,2,2,2,2,2,2,2,2,2,2,2,2,2,2,2,2,2,2,2,2,2,2,2,2,2,2,2,2,2,2,2,2,2,2,2,2,2,2,2,2,2,2,2,2,2,2,2,2,2,2,2,2,2,2,2,2,2,2,2,2,2,2,2,2,2,2,2,2,2,2,2"
dtnsim.node[1].app.size = "200,100,200,100,500,100,500,100,50,200,50,50,200,200,50,200,200,100,50,100,500,500,500,500,500,500,200,500,50,500,50,200,100,50,50,200,50,200,50,100,500,500,500,50,50,50,500,50,100,50,100,50,100,50,50,100,500,50,50,50,100,100,100,500,500,500,50,50,500,50,100,50,500,50,50,500,200,500,100,500,200,500,100,200,500,100,200,500,200,500,50,200,100,100,200,200,100,500,100,50"
# Node 2 random conversational traffic
dtnsim.node[2].app.enable = true
dtnsim.node[2].app.bundlesNumber = "4,5,2,5,4,1,3,2,3,5,5,1,2,2,5,2,4,2,5,1,1,5,1,2,5,2,1,1,5,5,4,3,1,1,1,4,5,2,2,1,4,2,5,2,2,2,1,1,3,3,3,5,1,5,4,4,4,4,3,4,4,5,3,2,4,2,5,2,1,2,2,3,3,5,5,3,2,3,3,2,5,1,5,3,1,3,4,4,2,3,1,3,1,5,2,5,4,5,3,5"
dtnsim.node[2].app.start = "20,7,8,15,18,14,18,14,17,18,15,8,16,14,20,16,20,20,8,12,15,17,15,7,20,17,10,20,15,7,17,12,16,6,12,10,17,13,17,19,20,11,14,15,19,17,9,15,17,12,9,12,9,20,18,8,19,6,20,11,20,18,17,6,12,17,16,9,6,11,6,16,5,11,7,13,4,19,4,6,13,6,14,7,2,19,10,19,14,4,17,4,6,17,15,19,14,20,10,14"
dtnsim.node[2].app.destinationEid = "1,1,1,1,1,1,1,1,1,1,1,1,1,1,1,1,1,1,1,1,1,1,1,1,1,1,1,1,1,1,1,1,1,1,1,1,1,1,1,1,1,1,1,1,1,1,1,1,1,1,1,1,1,1,1,1,1,1,1,1,1,1,1,3,3,3,3,3,3,3,3,3,3,3,3,3,3,3,3,3,3,3,3,3,3,3,3,3,3,3,3,3,3,3,3,3,3,3,3,3"
dtnsim.node[2].app.size = "50,50,50,100,200,200,500,50,200,50,500,200,100,500,50,500,200,100,200,50,100,200,500,100,200,50,500,100,500,100,100,50,200,500,200,200,500,500,100,50,500,50,50,500,500,200,50,500,200,100,50,500,50,100,200,50,500,500,500,100,500,200,100,200,50,200,500,50,100,50,100,500,100,500,50,100,200,200,50,200,50,500,500,50,50,100,100,100,100,200,200,500,50,200,500,50,100,100,200,500"
# Node 3 random conversational traffic
dtnsim.node[3].app.enable = true
dtnsim.node[3].app.bundlesNumber = "5,1,1,5,1,5,4,3,5,3,2,2,3,3,2,3,4,4,2,2,4,5,3,3,5,1,1,1,4,2,4,3,5,4,3,2,4,3,1,5,3,4,3,2,5,1,2,5,3,4,2,1,3,5,3,2,4,4,5,3,4,4,2,1,3,4,1,5,4,2,1,1,3,2,1,3,2,3,3,2,4,3,3,2,3,5,5,4,3,3,2,4,5,1,1,5,3,5,5,1"
dtnsim.node[3].app.start = "14,15,17,9,18,15,20,10,20,8,17,16,20,17,10,10,7,20,18,20,20,20,16,19,5,9,4,2,1,10,10,14,20,9,11,10,17,13,6,7,4,1,19,15,8,20,13,5,5,20,16,12,20,15,6,6,11,1,16,4,2,4,14,16,16,15,20,9,6,15,4,13,8,1,4,18,5,1,20,15,16,12,12,15,10,3,17,15,19,13,6,3,3,16,15,8,4,1,9,3"
dtnsim.node[3].app.destinationEid = "2,2,2,2,2,2,2,2,2,2,2,2,2,2,2,2,2,2,2,2,2,2,2,2,4,4,4,4,4,4,4,4,4,4,4,4,4,4,4,4,4,4,4,4,4,4,4,4,4,4,4,4,4,4,4,4,4,4,4,4,4,4,4,4,4,4,4,4,4,4,4,4,4,4,4,4,4,4,4,4,4,4,4,4,4,4,4,4,4,4,4,4,4,4,4,4,4,4,4,4"
dtnsim.node[3].app.size = "50,500,100,500,500,200,500,50,50,100,50,200,500,100,50,500,100,500,50,50,500,100,50,500,500,50,50,500,100,200,500,100,200,50,100,100,100,50,50,50,200,200,500,100,500,100,50,100,500,50,100,100,50,50,50,100,100,100,100,100,50,100,50,100,100,200,200,500,50,100,100,50,100,50,50,200,200,500,50,50,100,200,50,200,50,100,100,500,50,50,200,200,500,50,50,500,50,100,50,200"
# Node 4 random conversational traffic
dtnsim.node[4].app.enable = true
dtnsim.node[4].app.bundlesNumber = "5,1,2,1,3,3,1,2,4,2,3,2,3,2,2,3,5,4,2,5,4,5,3,3,3,5,3,5,3,3,3,5,5,4,5,2,5,1,1,2,3,2,5,4,1,3,1,3,2,5,3,2,3,4,2,1,5,5,2,2,2,1,4,1,3,1,3,4,3,2,3,5,3,3,1,5,1,5,3,5,3,5,1,3,2,5,5,5,5,3,2,3,1,4,2,1,4,3,1,2"
dtnsim.node[4].app.start = "10,8,20,18,12,20,18,16,11,11,20,18,12,15,20,19,15,20,17,12,8,19,4,19,11,11,18,20,18,20,13,20,16,14,5,13,8,20,16,17,15,15,19,13,5,18,20,18,12,10,19,16,15,11,11,5,16,20,11,13,2,20,9,3,18,10,16,19,2,15,16,2,3,7,17,2,18,6,14,16,17,7,10,7,12,15,18,18,5,11,10,9,17,4,7,17,15,15,17,14"
dtnsim.node[4].app.destinationEid = "3,3,3,3,3,3,3,3,3,3,3,3,3,3,3,3,3,3,3,3,3,3,3,3,3,3,3,3,3,3,3,3,3,3,3,3,3,3,3,3,3,3,3,3,3,3,3,3,3,3,3,3,3,3,3,3,5,5,5,5,5,5,5,5,5,5,5,5,5,5,5,5,5,5,5,5,5,5,5,5,5,5,5,5,5,5,5,5,5,5,5,5,5,5,5,5,5,5,5,5"
dtnsim.node[4].app.size = "200,50,500,200,500,100,200,50,100,500,100,200,200,100,500,50,200,100,100,500,100,50,200,500,500,100,200,500,200,50,500,50,500,500,200,50,200,50,50,50,50,200,100,100,100,50,50,500,50,50,500,200,50,50,500,500,50,100,50,200,500,100,500,200,200,500,500,50,50,100,200,100,100,500,100,100,100,50,500,500,100,200,50,500,500,100,50,50,50,500,500,50,50,100,100,200,500,100,500,50"
# Node 5 random conversational traffic
dtnsim.node[5].app.enable = true
dtnsim.node[5].app.bundlesNumber = "4,1,5,1,5,3,4,2,4,4,1,3,3,2,1,5,5,4,3,2,1,2,2,2,3,2,1,5,5,1,1,5,2,3,4,3,5,5,4,2,4,3,1,2,4,2,2,3,2,5,4,2,2,5,2,4,5,3,1,1,2,2,5,3,5,4,2,3,2,1,4,3,1,4,5,5,4,2,4,1,5,5,3,5,4,1,5,3,5,1,5,3,1,1,1,2,4,5,3,4"
dtnsim.node[5].app.start = "19,20,12,5,12,13,19,20,20,20,12,18,19,18,10,13,14,15,18,20,19,11,7,19,16,20,20,7,7,13,19,10,4,5,1,14,15,11,10,7,11,11,5,10,7,16,16,2,1,16,8,18,13,4,4,1,11,3,19,7,18,12,20,1,19,8,19,4,3,3,3,9,16,3,8,18,15,9,3,12,3,13,1,8,11,12,6,11,7,8,9,9,18,18,13,16,7,20,16,4"
dtnsim.node[5].app.destinationEid = "4,4,4,4,4,4,4,4,4,4,4,4,4,4,4,4,4,4,4,4,4,4,4,4,4,4,4,6,6,6,6,6,6,6,6,6,6,6,6,6,6,6,6,6,6,6,6,6,6,6,6,6,6,6,6,6,6,6,6,6,6,6,6,6,6,6,6,6,6,6,6,6,6,6,6,6,6,6,6,6,6,6,6,6,6,6,6,6,6,6,6,6,6,6,6,6,6,6,6,6"
dtnsim.node[5].app.size = "500,500,50,50,200,50,100,50,200,200,50,500,100,500,100,500,50,50,50,50,500,100,200,200,200,100,50,500,50,50,50,500,500,50,50,50,500,500,50,200,200,100,100,200,50,100,100,50,500,50,500,200,200,200,100,500,100,100,50,50,100,50,500,100,50,200,200,500,500,50,100,500,200,500,100,200,50,500,500,100,200,50,200,200,200,50,50,100,500,200,500,500,50,500,500,500,100,100,50,100"
# Node 6 random conversational traffic
dtnsim.node[6].app.enable = true
dtnsim.node[6].app.bundlesNumber = "4,1,5,5,1,5,1,1,1,3,5,5,3,3,1,4,2,4,1,5,4,1,4,5,5,1,1,1,5,2,5,2,4,3,2,5,1,3,3,4,1,1,3,3,4,3,1,2,4,2,3,3,5,3,4,2,4,1,4,2,1,1,4,2,2,4,2,4,5,5,4,1,2,5,1,1,4,3,5,5,3,2,1,1,5,1,3,3,5,2,4,4,2,2,3,5,1,4,3,4"
dtnsim.node[6].app.start = "12,10,20,16,19,11,20,15,12,19,20,12,20,16,19,13,7,18,4,20,20,20,6,4,10,5,19,19,17,6,18,15,17,10,12,16,19,20,20,16,20,17,18,5,6,5,3,13,8,20,14,3,3,15,1,3,18,15,14,3,12,3,18,12,4,11,10,1,14,16,20,9,13,12,9,6,16,4,15,8,6,1,18,20,9,5,2,2,19,13,19,9,15,4,4,2,3,17,3,5"
dtnsim.node[6].app.destinationEid = "5,5,5,5,5,5,5,5,5,5,5,5,5,5,5,5,5,5,5,5,5,5,5,5,5,5,5,5,5,5,5,5,5,5,5,5,5,5,5,5,5,5,7,7,7,7,7,7,7,7,7,7,7,7,7,7,7,7,7,7,7,7,7,7,7,7,7,7,7,7,7,7,7,7,7,7,7,7,7,7,7,7,7,7,7,7,7,7,7,7,7,7,7,7,7,7,7,7,7,7"
dtnsim.node[6].app.size = "500,50,200,500,500,200,50,200,100,500,200,50,50,500,100,500,500,100,100,500,200,100,100,200,100,500,50,100,50,50,50,100,50,100,100,50,200,100,50,500,500,500,500,500,500,50,500,100,200,100,100,500,200,100,100,50,500,200,200,200,500,500,200,100,500,50,50,500,100,200,50,100,200,200,200,50,50,50,500,200,500,500,200,200,500,50,50,500,200,50,500,50,200,500,100,50,200,100,500,100"
# Node 7 random conversational traffic
dtnsim.node[7].app.enable = true
dtnsim.node[7].app.bundlesNumber = "1,3,1,5,5,5,3,4,3,5,4,5,1,4,3,3,5,2,2,2,4,1,1,4,5,5,3,3,1,3,5,4,4,2,3,4,1,3,5,4,2,5,3,1,4,2,4,5,3,2,4,5,2,5,5,1,5,3,5,5,3,4,4,1,3,2,2,3,4,5,3,1,5,2,4,4,5,1,1,4,1,2,3,1,5,1,1,1,2,2,2,4,1,4,2,2,3,2,3,5"
dtnsim.node[7].app.start = "15,13,8,7,19,20,20,11,13,18,10,20,19,16,17,15,19,11,18,19,20,5,20,16,20,12,6,14,7,9,13,11,7,14,11,20,12,11,16,4,7,2,11,10,2,14,11,4,9,5,13,6,12,7,16,15,11,17,4,18,15,20,8,12,19,11,6,15,15,6,9,8,15,19,10,16,3,17,4,12,15,15,13,5,19,16,11,13,17,2,15,3,6,6,3,3,18,6,10,9"
dtnsim.node[7].app.destinationEid = "6,6,6,6,6,6,6,6,6,6,6,6,6,6,6,6,6,6,6,6,6,6,6,6,6,6,6,6,6,6,6,8,8,8,8,8,8,8,8,8,8,8,8,8,8,8,8,8,8,8,8,8,8,8,8,8,8,8,8,8,8,8,8,8,8,8,8,8,8,8,8,8,8,8,8,8,8,8,8,8,8,8,8,8,8,8,8,8,8,8,8,8,8,8,8,8,8,8,8,8"
dtnsim.node[7].app.size = "200,500,500,200,500,50,50,200,500,50,100,50,200,50,200,200,200,50,200,100,50,50,100,50,200,100,100,100,200,200,100,500,100,200,100,50,200,100,100,500,50,200,50,200,200,200,100,100,50,50,100,50,500,200,200,500,50,500,500,100,50,100,200,100,200,100,50,500,100,100,200,200,500,200,100,50,500,50,100,200,100,200,200,100,200,200,50,500,500,100,50,200,200,500,100,500,50,200,50,500"
# Node 8 random conversational traffic
dtnsim.node[8].app.enable = true
dtnsim.node[8].app.bundlesNumber = "3,5,2,3,4,1,4,4,2,1,5,1,4,3,2,2,4,5,4,2,5,4,3,5,4,5,2,2,2,5,4,4,3,3,1,5,1,5,4,3,4,3,1,3,3,4,5,5,3,5,1,4,4,5,4,1,3,5,1,1,1,5,1,4,1,5,4,2,5,1,1,1,3,3,3,3,3,2,4,4,3,5,3,1,4,2,5,3,1,5,4,5,4,5,3,3,5,4,4,3"
dtnsim.node[8].app.start = "16,16,12,11,15,4,19,20,10,20,16,13,14,7,20,12,20,20,15,20,15,14,20,19,19,12,18,17,18,14,20,16,19,20,18,18,7,17,11,10,13,10,16,14,13,5,10,11,18,11,19,12,18,18,5,3,7,14,19,3,1,20,2,2,17,14,19,15,20,11,4,5,9,14,3,9,15,18,13,17,5,5,2,9,11,2,14,3,20,14,5,6,18,12,14,19,3,10,13,3"
dtnsim.node[8].app.destinationEid = "7,7,7,7,7,7,7,7,7,7,7,7,7,7,7,7,7,7,7,7,7,7,7,7,7,7,7,7,7,7,7,7,7,7,7,7,7,7,7,7,7,7,7,9,9,9,9,9,9,9,9,9,9,9,9,9,9,9,9,9,9,9,9,9,9,9,9,9,9,9,9,9,9,9,9,9,9,9,9,9,9,9,9,9,9,9,9,9,9,9,9,9,9,9,9,9,9,9,9,9"
dtnsim.node[8].app.size = "500,500,50,50,200,50,100,500,50,100,100,100,50,200,100,100,500,50,50,50,200,200,500,200,500,200,200,50,500,500,100,100,500,500,500,500,100,500,500,500,500,50,500,100,500,50,200,50,500,200,500,100,500,200,500,200,200,100,200,200,200,100,50,100,500,50,50,100,50,100,200,500,500,50,100,100,500,50,100,50,200,50,500,500,500,200,50,200,50,100,50,100,100,500,200,100,200,200,100,500"
# Node 9 random conversational traffic
dtnsim.node[9].app.enable = true
dtnsim.node[9].app.bundlesNumber = "2,1,4,1,3,3,4,5,2,5,3,4,4,2,3,4,2,1,4,2,5,3,2,4,2,4,2,3,3,4,3,2,4,2,4,1,1,1,1,3,5,3,5,3,1,1,1,3,4,4,5,4,4,4,5,1,5,2,4,3,4,4,3,4,4,5,1,5,2,4,3,1,3,2,5,4,1,5,4,3,2,3,2,4,2,5,1,3,4,5,3,4,1,2,5,4,3,3,3,3"
dtnsim.node[9].app.start = "10,14,12,20,20,11,6,15,20,10,3,20,4,19,20,19,20,10,7,10,20,15,18,12,18,4,16,11,20,10,19,14,4,12,7,18,19,18,20,7,16,16,7,20,11,18,7,9,18,10,20,20,3,16,18,13,10,4,6,2,4,16,6,14,15,7,18,5,10,1,18,16,12,11,6,13,14,14,8,1,12,1,10,7,11,19,5,3,18,12,11,15,1,13,20,15,5,4,8,12"
dtnsim.node[9].app.destinationEid = "8,8,8,8,8,8,8,8,8,8,8,8,8,8,8,8,8,8,8,8,8,8,8,8,8,8,8,8,8,8,8,8,8,10,10,10,10,10,10,10,10,10,10,10,10,10,10,10,10,10,10,10,10,10,10,10,10,10,10,10,10,10,10,10,10,10,10,10,10,10,10,10,10,10,10,10,10,10,10,10,10,10,10,10,10,10,10,10,10,10,10,10,10,10,10,10,10,10,10,10"
dtnsim.node[9].app.size = "100,100,50,200,100,50,200,100,50,500,200,200,500,500,50,500,500,50,50,100,50,100,200,200,500,100,500,100,500,50,50,50,50,100,500,50,100,50,500,100,50,50,100,50,50,200,100,200,200,50,200,50,500,200,50,500,200,50,200,500,100,200,50,200,50,500,200,100,500,500,100,500,500,200,50,50,50,50,50,100,200,500,500,100,50,200,200,200,200,500,50,200,200,50,200,500,500,200,100,100"
# Node 10 random conversational traffic
dtnsim.node[10].app.enable = true
dtnsim.node[10].app.bundlesNumber = "5,3,1,2,3,1,3,2,3,4,4,1,2,4,5,3,3,4,3,2,4,5,3,5,5,4,4,2,3,5,2,4,3,2,4,4,3,4,1,3,4,5,5,2,3,4,3,4,5,1,5,1,1,3,4,1,1,3,3,3,2,4,2,3,1,5,5,3,4,3,4,4,4,5,3,4,3,5,3,2,4,1,4,2,3,3,5,3,2,1,2,5,2,2,5,2,5,1,2,5"
dtnsim.node[10].app.start = "18,10,20,20,16,17,20,12,18,9,14,20,20,20,16,9,16,10,9,17,16,9,20,9,19,20,15,20,19,9,15,14,13,19,18,20,10,12,18,10,9,18,7,4,3,20,10,1,5,17,19,18,9,8,11,1,2,18,7,5,7,1,8,3,5,1,6,14,16,13,9,5,15,16,10,4,3,9,5,2,5,3,4,13,12,16,2,11,2,20,10,12,17,12,19,5,9,18,4,14"
dtnsim.node[10].app.destinationEid = "9,9,9,9,9,9,9,9,9,9,9,9,9,9,9,9,9,9,9,9,9,9,9,9,9,9,9,9,9,9,9,9,9,9,9,9,9,9,9,11,11,11,11,11,11,11,11,11,11,11,11,11,11,11,11,11,11,11,11,11,11,11,11,11,11,11,11,11,11,11,11,11,11,11,11,11,11,11,11,11,11,11,11,11,11,11,11,11,11,11,11,11,11,11,11,11,11,11,11,11"
dtnsim.node[10].app.size = "100,50,500,200,200,500,200,200,500,100,500,200,100,100,500,50,50,200,50,500,500,200,50,200,50,200,50,100,100,500,100,200,200,200,50,200,100,200,200,100,50,50,200,200,500,50,200,200,50,100,50,100,100,200,500,200,200,50,200,200,200,200,200,100,500,100,200,50,500,200,500,500,500,100,200,200,100,50,500,200,50,50,500,500,50,500,100,500,500,100,50,500,100,50,50,100,200,200,50,50"
# Node 11 random conversational traffic
dtnsim.node[11].app.enable = true
dtnsim.node[11].app.bundlesNumber = "3,4,2,5,1,3,2,1,2,5,5,2,4,1,5,4,2,4,4,5,3,5,5,2,2,5,2,3,1,1,2,4,2,4,1,5,2,4,3,3,3,4,4,1,3,5,1,5,1,4,5,3,1,4,1,5,2,3,2,5,1,4,5,5,2,2,1,5,1,3,4,5,5,5,3,2,3,1,1,2,3,4,5,4,5,3,1,4,3,3,5,5,2,5,2,5,3,1,5,4"
dtnsim.node[11].app.start = "15,14,19,13,20,19,11,19,19,18,11,8,13,11,4,13,18,20,14,9,6,15,5,15,6,20,4,13,20,20,12,19,20,9,19,2,4,13,1,14,16,3,1,11,15,3,17,3,10,4,17,2,19,5,17,6,3,15,18,8,3,6,13,5,1,13,11,5,14,20,4,17,9,7,2,6,2,11,14,10,4,4,16,15,19,18,13,12,16,11,4,17,5,15,3,16,9,15,6,18"
dtnsim.node[11].app.destinationEid = "10,10,10,10,10,10,10,10,10,10,10,10,10,10,10,10,10,10,10,10,10,10,10,10,10,10,10,10,10,10,10,10,10,10,10,12,12,12,12,12,12,12,12,12,12,12,12,12,12,12,12,12,12,12,12,12,12,12,12,12,12,12,12,12,12,12,12,12,12,12,12,12,12,12,12,12,12,12,12,12,12,12,12,12,12,12,12,12,12,12,12,12,12,12,12,12,12,12,12,12"
dtnsim.node[11].app.size = "50,200,100,200,100,200,50,100,200,50,50,200,500,100,100,50,50,200,200,50,100,50,200,50,100,200,500,200,100,200,50,50,200,50,50,500,50,50,100,500,50,100,50,200,200,50,500,200,50,50,500,50,200,50,200,200,100,100,200,500,50,100,500,100,50,500,50,500,100,50,200,50,200,500,100,200,50,500,50,50,500,100,200,200,500,200,100,50,50,500,500,50,500,200,50,100,50,100,200,100"
# Node 12 random conversational traffic
dtnsim.node[12].app.enable = true
dtnsim.node[12].app.bundlesNumber = "4,4,4,2,1,2,1,2,4,5,3,4,2,4,2,5,4,1,4,4,2,1,5,5,5,3,2,2,2,5,2,1,1,1,5,5,5,1,1,2,2,1,4,1,3,2,4,5,3,4,4,4,5,3,1,1,4,4,4,1,1,4,1,3,5,4,4,1,5,5,3,4,1,2,5,4,4,1,4,1,3,5,3,4,4,2,5,2,1,3,4,5,5,1,5,2,3,5,5,5"
dtnsim.node[12].app.start = "7,20,10,6,17,19,5,19,8,19,11,10,19,15,14,7,7,20,19,8,18,18,14,11,20,16,19,15,17,20,17,14,20,15,11,14,20,13,18,4,16,16,11,11,6,2,5,13,16,10,19,8,1,16,5,13,16,20,17,18,1,16,13,11,8,8,9,3,12,2,7,14,4,12,3,1,12,17,6,8,13,16,11,13,13,10,2,17,9,17,3,19,6,7,19,1,9,8,2,3"
dtnsim.node[12].app.destinationEid = "11,11,11,11,11,11,11,11,11,11,11,11,11,11,11,11,11,11,11,11,11,11,11,11,11,11,11,11,11,11,11,11,11,13,13,13,13,13,13,13,13,13,13,13,13,13,13,13,13,13,13,13,13,13,13,13,13,13,13,13,13,13,13,13,13,13,13,13,13,13,13,13,13,13,13,13,13,13,13,13,13,13,13,13,13,13,13,13,13,13,13,13,13,13,13,13,13,13,13,13"
dtnsim.node[12].app.size = "200,100,100,100,100,200,200,500,200,100,100,500,100,50,50,50,100,100,50,50,200,100,50,50,500,50,50,500,200,50,500,500,50,500,100,100,50,200,100,50,50,100,100,200,50,200,500,50,500,50,100,500,200,50,200,500,200,500,200,50,200,50,50,100,500,50,200,50,200,500,200,100,500,100,200,50,200,50,200,100,100,100,200,200,50,200,200,500,200,50,500,50,50,200,100,100,50,100,500,500"
# Node 13 random conversational traffic
dtnsim.node[13].app.enable = true
dtnsim.node[13].app.bundlesNumber = "4,3,2,3,1,3,4,2,3,2,3,4,5,2,5,3,2,4,1,3,1,4,2,3,5,2,5,4,1,1,4,5,2,4,5,5,1,3,2,2,4,5,4,4,2,2,3,1,3,5,5,5,2,1,2,4,2,1,5,3,4,4,4,3,3,4,1,4,5,4,3,3,4,4,5,5,2,4,2,2,4,3,2,1,3,2,1,5,3,2,1,2,4,1,3,3,5,5,5,1"
dtnsim.node[13].app.start = "18,18,20,19,19,20,13,13,10,8,16,13,20,11,7,17,20,18,20,5,20,13,19,10,19,10,16,7,6,17,20,10,16,14,17,11,11,16,19,4,20,8,20,18,18,19,6,20,17,9,7,11,9,15,13,12,15,11,13,3,17,16,10,20,11,15,15,10,20,3,1,17,11,10,5,1,12,14,17,15,15,16,8,3,20,9,8,9,4,18,9,8,17,8,15,4,5,9,9,6"
dtnsim.node[13].app.destinationEid = "12,12,12,12,12,12,12,12,12,12,12,12,12,12,12,12,12,12,12,12,12,12,12,12,12,12,12,12,12,12,12,12,12,12,12,12,12,12,12,12,12,12,12,12,14,14,14,14,14,14,14,14,14,14,14,14,14,14,14,14,14,14,14,14,14,14,14,14,14,14,14,14,14,14,14,14,14,14,14,14,14,14,14,14,14,14,14,14,14,14,14,14,14,14,14,14,14,14,14,14"
dtnsim.node[13].app.size = "100,500,50,100,100,100,200,200,200,100,100,200,100,200,50,100,100,50,500,200,50,50,200,500,100,50,50,200,500,500,500,100,500,50,100,200,100,100,500,500,200,500,200,500,50,100,500,200,50,200,500,500,200,100,500,500,100,200,500,200,200,500,100,50,50,200,500,200,200,500,200,50,100,200,50,500,200,500,200,100,200,200,100,50,500,500,100,50,50,100,200,500,200,50,200,200,500,50,200,500"
# Node 14 random conversational traffic
dtnsim.node[14].app.enable = true
dtnsim.node[14].app.bundlesNumber = "4,2,4,4,3,5,2,1,3,3,2,2,5,1,2,4,5,5,2,2,4,5,5,4,1,3,4,4,2,3,5,4,1,4,1,5,5,4,4,1,3,2,2,1,3,1,2,4,1,3,1,5,1,4,3,4,3,2,2,2,4,3,4,3,4,2,5,2,4,4,5,1,2,5,2,2,3,3,1,3,1,3,2,2,1,1,4,1,5,5,4,5,1,1,3,1,3,5,3,4"
dtnsim.node[14].app.start = "19,20,15,20,18,15,16,17,19,14,19,14,19,20,16,20,13,11,19,14,13,3,17,20,17,20,18,14,10,12,19,14,12,18,18,20,13,11,19,10,19,18,3,8,6,2,13,6,1,2,12,6,12,10,19,11,2,20,6,12,9,2,7,9,1,5,17,2,14,12,9,5,12,7,5,16,2,7,13,16,18,12,12,1,16,7,3,11,1,8,4,15,2,14,14,4,5,20,16,9"
dtnsim.node[14].app.destinationEid = "13,13,13,13,13,13,13,13,13,13,13,13,13,13,13,13,13,13,13,13,13,13,13,13,13,13,13,13,13,13,13,13,13,13,13,13,13,13,13,13,15,15,15,15,15,15,15,15,15,15,15,15,15,15,15,15,15,15,15,15,15,15,15,15,15,15,15,15,15,15,15,15,15,15,15,15,15,15,15,15,15,15,15,15,15,15,15,15,15,15,15,15,15,15,15,15,15,15,15,15"
dtnsim.node[14].app.size = "100,500,500,200,200,200,500,500,500,100,500,200,50,50,100,100,500,200,100,500,50,50,50,50,200,200,500,500,200,200,50,200,500,500,500,500,50,100,50,500,200,500,100,100,50,100,200,500,500,200,50,200,200,200,200,200,500,100,500,100,500,100,500,200,500,500,500,50,500,100,100,200,100,50,100,200,500,100,100,500,100,100,50,200,50,50,50,200,200,50,200,50,500,100,100,200,50,500,50,50"
# Node 15 random conversational traffic
dtnsim.node[15].app.enable = true
dtnsim.node[15].app.bundlesNumber = "4,1,1,5,1,4,2,5,1,4,5,4,2,3,1,1,1,4,2,3,1,3,5,5,4,5,4,4,3,5,5,4,1,4,2,1,4,3,4,1,2,2,3,5,1,4,1,5,4,2,1,5,3,2,3,2,1,1,4,4,1,1,4,3,3,1,2,1,1,2,4,2,3,4,2,5,1,5,1,3,2,2,3,2,4,2,4,3,1,4,2,2,4,4,4,1,1,3,4,5"
dtnsim.node[15].app.start = "20,8,16,7,20,9,10,19,20,19,20,15,10,17,10,10,4,19,17,12,20,13,17,14,14,17,20,20,18,14,4,19,3,20,8,3,20,4,14,8,19,19,15,7,8,1,15,4,8,18,17,10,2,9,16,3,7,9,8,4,19,5,6,9,16,17,12,7,3,15,8,18,15,19,6,10,13,6,16,9,8,18,6,2,13,16,4,7,7,6,6,16,8,15,8,11,16,11,20,3"
dtnsim.node[15].app.destinationEid = "14,14,14,14,14,14,14,14,14,14,14,14,14,14,14,14,14,14,14,14,14,14,14,14,14,14,14,14,14,14,14,14,14,14,14,16,16,16,16,16,16,16,16,16,16,16,16,16,16,16,16,16,16,16,16,16,16,16,16,16,16,16,16,16,16,16,16,16,16,16,16,16,16,16,16,16,16,16,16,16,16,16,16,16,16,16,16,16,16,16,16,16,16,16,16,16,16,16,16,16"
dtnsim.node[15].app.size = "500,500,100,200,100,500,100,50,100,50,50,50,50,500,50,500,500,50,50,100,100,500,500,500,500,500,200,100,500,200,50,500,100,100,50,500,100,500,200,50,100,200,100,100,200,50,100,50,200,200,50,200,100,50,500,500,100,500,100,50,50,100,50,50,50,50,100,50,50,100,200,500,100,100,500,200,50,50,100,200,50,50,500,100,500,50,500,50,100,500,50,50,50,100,200,50,50,50,50,200"
# Node 16 random conversational traffic
dtnsim.node[16].app.enable = true
dtnsim.node[16].app.bundlesNumber = "2,3,2,3,3,5,4,3,4,2,2,4,5,5,1,1,1,5,1,2,5,5,4,3,4,5,3,3,5,2,1,2,4,2,4,5,5,3,2,1,1,3,4,5,4,4,2,2,4,1,3,3,5,3,5,1,5,3,5,3,3,1,5,3,5,1,4,1,5,1,5,3,4,4,4,3,4,2,1,4,4,4,3,5,2,1,4,5,3,1,5,2,3,4,2,3,3,2,5,5"
dtnsim.node[16].app.start = "14,20,13,18,5,10,10,20,20,17,8,18,9,12,14,12,20,12,18,18,20,10,20,20,10,15,15,19,14,20,15,12,14,18,6,9,10,13,20,11,10,9,10,19,5,8,17,8,15,13,11,8,11,1,7,2,19,16,20,6,3,1,9,16,20,19,13,9,5,2,12,1,14,13,16,9,9,9,15,13,11,15,15,4,12,4,12,17,19,20,15,7,2,16,16,20,18,13,12,9"
dtnsim.node[16].app.destinationEid = "15,15,15,15,15,15,15,15,15,15,15,15,15,15,15,15,15,15,15,15,15,15,15,15,15,15,15,15,15,15,15,15,15,15,15,15,15,15,15,15,17,17,17,17,17,17,17,17,17,17,17,17,17,17,17,17,17,17,17,17,17,17,17,17,17,17,17,17,17,17,17,17,17,17,17,17,17,17,17,17,17,17,17,17,17,17,17,17,17,17,17,17,17,17,17,17,17,17,17,17"
dtnsim.node[16].app.size = "50,100,200,200,200,200,50,500,500,200,50,100,200,50,50,100,500,200,500,100,100,50,500,100,100,500,100,500,100,50,500,500,200,200,100,200,200,500,200,100,500,200,50,200,50,200,50,500,500,100,100,100,200,500,200,100,100,200,100,100,100,50,50,200,100,200,500,500,100,100,500,50,100,100,50,200,50,100,100,100,50,200,200,50,200,500,50,100,200,50,50,200,200,200,200,500,200,200,50,100"
# Node 17 random conversational traffic
dtnsim.node[17].app.enable = true
dtnsim.node[17].app.bundlesNumber = "2,4,4,5,1,3,4,1,4,2,5,5,1,1,2,2,5,2,2,1,4,5,1,3,4,3,1,1,1,2,3,1,2,2,5,3,3,4,2,3,3,3,5,2,1,2,3,4,5,3,5,4,2,2,3,3,5,5,5,4,2,5,2,4,1,4,5,4,1,3,4,4,5,5,5,5,2,2,3,3,1,1,5,3,3,1,3,3,1,2,4,3,3,2,5,1,3,4,4,2"
dtnsim.node[17].app.start = "13,10,16,18,16,11,16,20,17,14,10,6,19,20,20,18,14,18,2,15,20,18,17,16,9,20,20,13,19,20,19,17,20,12,5,9,20,18,2,3,5,18,5,11,2,13,14,12,8,14,16,12,15,10,10,15,17,6,17,9,9,16,5,10,14,1,3,19,2,10,19,18,16,20,5,4,8,5,11,6,11,1,4,11,12,2,19,13,2,4,1,12,6,3,18,6,1,11,18,5"
dtnsim.node[17].app.destinationEid = "16,16,16,16,16,16,16,16,16,16,16,16,16,16,16,16,16,16,16,16,16,16,16,16,16,16,16,16,16,16,16,16,16,16,18,18,18,18,18,18,18,18,18,18,18,18,18,18,18,18,18,18,18,18,18,18,18,18,18,18,18,18,18,18,18,18,18,18,18,18,18,18,18,18,18,18,18,18,18,18,18,18,18,18,18,18,18,18,18,18,18,18,18,18,18,18,18,18,18,18"
dtnsim.node[17].app.size = "200,500,100,50,200,50,50,500,100,500,100,100,200,50,50,200,100,200,500,200,200,100,50,50,50,200,100,50,500,500,200,100,500,200,200,200,50,500,50,50,500,100,200,50,100,50,200,200,50,500,50,200,50,100,200,50,50,100,500,50,50,500,200,200,100,100,100,50,100,500,500,200,50,50,200,500,50,50,50,100,200,500,100,500,500,100,50,50,200,100,500,100,100,500,500,500,200,200,500,100"
# Node 18 random conversational traffic
dtnsim.node[18].app.enable = true
dtnsim.node[18].app.bundlesNumber = "2,5,5,1,2,5,5,1,1,2,3,3,5,1,2,1,3,4,3,2,4,3,2,2,3,5,2,4,5,3,1,4,3,4,3,1,3,4,1,2,5,3,2,1,2,1,1,1,2,2,1,5,4,5,1,4,2,1,3,1,2,5,2,3,3,3,3,2,2,4,4,3,5,2,5,5,2,2,3,3,1,1,1,3,4,2,3,2,4,3,3,4,5,5,3,1,2,4,1,5"
dtnsim.node[18].app.start = "18,20,20,9,7,20,10,19,17,19,12,20,18,17,20,20,16,18,19,15,2,3,11,20,20,20,7,5,18,20,19,6,5,20,13,20,15,9,19,11,9,11,14,19,3,11,14,8,1,12,20,8,1,1,15,18,19,13,17,19,10,15,19,16,2,17,10,4,2,2,15,8,19,6,4,5,15,13,3,4,10,8,12,20,10,16,18,2,20,8,12,6,17,17,16,14,18,5,12,11"
dtnsim.node[18].app.destinationEid = "17,17,17,17,17,17,17,17,17,17,17,17,17,17,17,17,17,17,17,17,17,17,17,17,17,17,17,17,17,17,17,17,17,17,17,17,17,17,17,17,19,19,19,19,19,19,19,19,19,19,19,19,19,19,19,19,19,19,19,19,19,19,19,19,19,19,19,19,19,19,19,19,19,19,19,19,19,19,19,19,19,19,19,19,19,19,19,19,19,19,19,19,19,19,19,19,19,19,19,19"
dtnsim.node[18].app.size = "500,50,50,500,50,50,200,50,200,200,200,200,50,200,500,50,100,50,50,100,50,50,50,200,50,100,500,500,200,500,500,100,100,100,50,500,50,200,200,50,100,100,100,500,500,200,50,200,200,200,50,50,200,200,200,200,500,50,100,50,200,100,50,50,50,50,500,50,100,200,500,50,50,200,200,50,500,50,50,200,200,100,200,100,100,50,200,500,50,200,200,500,50,500,500,200,50,50,500,500"
# Node 19 random conversational traffic
dtnsim.node[19].app.enable = true
dtnsim.node[19].app.bundlesNumber = "3,2,5,1,4,2,3,1,3,5,3,5,2,1,1,4,1,1,5,1,2,5,2,2,5,4,2,4,5,4,3,4,2,5,4,3,2,4,4,5,2,3,1,4,4,4,5,5,3,2,2,2,3,2,1,3,1,2,3,5,2,4,5,1,4,1,1,5,2,3,5,2,4,2,2,2,3,1,1,4,3,5,2,3,4,5,2,3,4,3,2,3,1,1,4,3,1,5,3,2"
dtnsim.node[19].app.start = "8,19,9,20,15,18,20,20,20,16,7,4,14,8,17,8,13,20,19,19,20,10,20,12,18,20,20,16,19,7,19,18,16,4,20,2,17,10,18,19,15,12,2,16,15,19,3,9,18,2,16,16,17,16,13,17,20,7,15,9,13,13,17,5,15,6,5,3,10,3,10,9,20,5,17,2,20,20,9,2,8,3,7,2,10,15,13,12,11,16,8,14,5,15,9,14,4,9,16,20"
dtnsim.node[19].app.destinationEid = "18,18,18,18,18,18,18,18,18,18,18,18,18,18,18,18,18,18,18,18,18,18,18,18,18,18,18,18,18,18,18,18,20,20,20,20,20,20,20,20,20,20,20,20,20,20,20,20,20,20,20,20,20,20,20,20,20,20,20,20,20,20,20,20,20,20,20,20,20,20,20,20,20,20,20,20,20,20,20,20,20,20,20,20,20,20,20,20,20,20,20,20,20,20,20,20,20,20,20,20"
dtnsim.node[19].app.size = "500,100,500,200,50,50,500,500,500,100,500,50,100,100,100,50,200,100,500,50,200,100,500,200,500,50,500,500,500,200,500,200,50,50,50,100,50,500,50,50,100,200,100,500,50,200,100,50,100,500,500,50,100,50,200,200,50,200,200,500,200,200,50,500,200,500,50,200,50,500,200,500,500,100,100,100,100,100,100,50,500,200,50,500,200,100,200,500,100,50,50,500,500,100,200,50,500,50,500,500"
# Node 20 random conversational traffic
dtnsim.node[20].app.enable = true
dtnsim.node[20].app.bundlesNumber = "1,3,4,3,3,2,2,1,2,1,4,4,3,4,4,1,3,1,2,1,1,1,3,2,5,3,2,1,1,4,5,2,1,3,1,3,4,3,1,4,3,2,4,2,3,1,2,1,4,1,2,1,5,1,5,4,5,1,2,1,3,3,1,4,3,3,2,2,3,3,5,2,5,1,1,4,1,2,3,3,1,1,1,2,5,1,2,4,2,1,2,1,2,2,3,3,5,3,3,5"
dtnsim.node[20].app.start = "20,19,20,13,19,16,14,4,18,17,20,20,14,15,19,11,17,7,12,10,20,10,20,20,11,5,16,4,5,19,18,14,18,10,13,20,14,8,14,9,9,17,14,1,19,2,12,7,17,10,8,13,9,20,9,2,10,7,9,17,5,19,5,20,18,16,7,20,3,14,14,15,4,2,10,12,12,6,20,16,17,8,1,8,16,14,7,2,2,19,2,16,18,4,7,17,1,2,12,17"
dtnsim.node[20].app.destinationEid = "19,19,19,19,19,19,19,19,19,19,19,19,19,19,19,19,19,19,19,19,19,19,19,19,19,19,19,19,19,19,19,19,19,19,19,19,21,21,21,21,21,21,21,21,21,21,21,21,21,21,21,21,21,21,21,21,21,21,21,21,21,21,21,21,21,21,21,21,21,21,21,21,21,21,21,21,21,21,21,21,21,21,21,21,21,21,21,21,21,21,21,21,21,21,21,21,21,21,21,21"
dtnsim.node[20].app.size = "100,50,200,500,500,50,500,200,100,500,200,50,100,100,200,50,200,500,500,50,50,200,200,500,50,200,200,100,100,50,100,500,100,50,100,100,500,50,200,100,500,200,100,500,100,200,100,500,50,50,200,200,500,50,500,100,500,100,100,200,500,50,200,50,100,100,50,100,200,200,50,50,100,200,50,200,200,100,200,200,50,200,50,500,200,500,50,500,50,100,200,500,100,100,500,500,50,500,50,200"
# Node 21 random conversational traffic
dtnsim.node[21].app.enable = true
dtnsim.node[21].app.bundlesNumber = "2,3,1,2,4,4,4,4,4,3,4,3,1,5,3,1,3,1,4,5,4,1,1,4,2,5,1,1,3,4,4,1,5,5,1,3,2,1,4,4,5,2,4,1,5,2,1,5,5,2,5,5,3,4,3,3,5,2,2,2,5,5,1,3,2,1,3,4,4,5,3,1,1,3,3,4,3,2,1,5,3,3,4,5,2,5,4,3,3,2,2,5,3,4,2,4,5,3,5,5"
dtnsim.node[21].app.start = "17,18,18,7,20,19,10,18,15,14,15,19,20,10,19,14,20,12,20,12,20,20,15,19,11,19,15,19,18,12,5,6,20,11,14,19,6,3,14,2,3,4,7,4,2,6,12,17,14,6,18,4,15,14,8,2,18,7,7,1,11,18,6,1,3,14,5,15,20,20,17,19,11,7,7,19,3,2,6,1,1,15,19,15,7,5,19,7,4,5,14,17,13,20,7,4,12,16,19,10"
dtnsim.node[21].app.destinationEid = "20,20,20,20,20,20,20,20,20,20,20,20,20,20,20,20,20,20,20,20,20,20,20,20,20,20,20,20,20,20,20,20,20,20,20,20,20,20,22,22,22,22,22,22,22,22,22,22,22,22,22,22,22,22,22,22,22,22,22,22,22,22,22,22,22,22,22,22,22,22,22,22,22,22,22,22,22,22,22,22,22,22,22,22,22,22,22,22,22,22,22,22,22,22,22,22,22,22,22,22"
dtnsim.node[21].app.size = "50,50,200,200,200,50,50,100,500,200,200,200,50,500,500,50,200,200,200,100,100,50,50,100,50,200,500,50,50,500,200,200,200,200,100,200,500,100,100,50,500,50,200,500,100,100,500,50,50,500,200,100,500,50,50,50,500,50,50,50,500,50,200,50,100,100,50,200,200,100,50,500,50,50,50,100,100,500,200,200,100,50,500,500,500,200,50,100,50,100,500,500,500,200,50,200,100,200,100,100"
# Node 22 random conversational traffic
dtnsim.node[22].app.enable = true
dtnsim.node[22].app.bundlesNumber = "5,1,3,4,4,2,2,1,2,2,1,1,2,5,5,3,5,4,2,1,4,1,1,4,3,4,4,2,1,3,5,2,4,1,3,3,5,5,1,4,5,5,4,4,1,5,3,1,4,3,1,3,4,5,5,5,3,1,4,3,2,1,3,1,3,1,5,5,5,5,5,3,5,2,2,1,3,3,2,2,5,2,5,1,4,4,1,3,2,1,3,5,5,2,3,5,4,2,1,1"
dtnsim.node[22].app.start = "6,15,9,20,15,20,11,7,20,10,5,14,8,4,11,16,16,20,20,18,20,8,12,6,17,20,16,15,10,12,18,20,19,17,20,14,6,5,18,15,12,2,3,6,17,18,12,7,8,11,3,10,4,1,13,16,3,15,4,13,9,10,8,19,19,3,15,17,10,11,12,2,18,15,18,19,9,18,9,14,20,8,13,14,7,3,12,5,1,8,9,6,12,9,19,20,1,18,13,1"
dtnsim.node[22].app.destinationEid = "21,21,21,21,21,21,21,21,21,21,21,21,21,21,21,21,21,21,21,21,21,21,21,21,21,21,21,21,21,21,21,21,21,21,21,21,23,23,23,23,23,23,23,23,23,23,23,23,23,23,23,23,23,23,23,23,23,23,23,23,23,23,23,23,23,23,23,23,23,23,23,23,23,23,23,23,23,23,23,23,23,23,23,23,23,23,23,23,23,23,23,23,23,23,23,23,23,23,23,23"
dtnsim.node[22].app.size = "50,500,50,200,50,100,500,50,50,500,200,500,100,50,200,100,100,500,50,100,50,100,500,50,500,200,200,100,500,50,200,50,200,500,500,100,200,500,50,50,50,500,50,50,100,500,50,500,500,500,100,200,200,500,200,500,100,50,100,500,100,500,100,50,50,100,50,100,500,50,500,500,200,200,200,50,200,50,100,200,100,50,100,500,500,50,50,50,100,100,50,500,50,100,100,50,500,200,500,500"
# Node 23 random conversational traffic
dtnsim.node[23].app.enable = true
dtnsim.node[23].app.bundlesNumber = "3,4,4,4,2,5,5,4,3,3,4,5,5,2,2,2,2,1,2,4,5,1,2,5,3,3,5,4,3,4,4,1,2,3,2,2,3,4,5,5,2,3,5,3,4,4,4,5,4,5,5,3,3,1,2,3,4,1,5,4,5,2,4,3,1,3,5,2,5,2,3,2,4,1,1,2,5,3,5,3,5,2,2,3,5,5,4,2,3,5,5,4,2,2,1,5,3,1,5,3"