[General]
network = src.dtnsim										
repeat = 1
allow-object-stealing-on-deletion = true

# Simulation end time
sim-time-limit = 84600s

# Nodes quantity (identifiers (EiDs) matches their index, EiD=0 is ignored)			
dtnsim.nodesNumber = 240
dtnsim.node[*].icon = "satellite"

# Nodes's failure rates
dtnsim.node[*].fault.enable = true
dtnsim.node[*].fault.meanTTF = 190s
dtnsim.node[*].fault.meanTTR = 10s

# Mobility
dtnsim.node[*].hasMobility = true
dtnsim.node[*].norad.satIndex = parentIndex()
dtnsim.node[*].norad.satName = "sat"
**.updateInterval = 20s
**.numOfSats = 240
**.satPerPlane = 12
**.altitude = 540
**.planes = 20
**.phaseOffset = 11

dtnsim.node[*].dtn.routing = "antop"
dtnsim.node[*].dtn.printRoutingDebug = true

# --- Random Traffic Configuration ---
# Node 1 random traffic
dtnsim.node[1].app.enable = true
dtnsim.node[1].app.bundlesNumber = "12,28,13,19,2,34,35,33,33,21,2,19,49,14,31,39,31,17,50,49,2,41,48,9,31,7,28,26,38,2,22,45,21,16,33,22,37,17,12,19,23,23,31,19,45,17,36,39,6,19,24,39,29,20,19,34,1,16,16,41,10,23,9,50,21,14,29,42,22,46,13,1,46,22,44,35,10,39,42,39,47,50,15,30,22,40,40,38,30,41,13,2,3,34,37,45,24,3,17,47"
dtnsim.node[1].app.start = "99,82,17,11,33,17,16,4,71,76,52,7,65,17,66,6,71,7,70,46,62,27,50,27,31,12,13,7,2,16,93,68,64,36,69,96,43,75,4,61,39,92,88,50,10,46,20,61,84,35,15,45,100,64,48,9,33,68,49,93,31,78,55,99,33,9,36,13,32,94,42,36,67,49,13,2,15,84,45,11,47,93,86,45,96,50,2,91,81,40,40,24,72,88,28,21,22,89,40,34"
dtnsim.node[1].app.destinationEid = "104,172,239,91,222,171,94,28,91,118,18,73,30,81,65,40,146,72,106,183,172,26,67,147,65,78,55,197,150,77,212,77,179,8,93,117,224,185,179,214,195,135,158,143,144,116,22,71,42,135,92,226,5,96,35,240,104,189,65,211,74,145,111,50,46,40,164,80,220,208,198,216,8,63,185,218,58,102,8,100,97,6,32,44,190,57,17,232,143,59,57,207,75,177,145,41,229,68,49,67"
dtnsim.node[1].app.size = "200,200,200,500,500,100,200,500,200,100,200,500,200,500,100,200,500,50,200,100,100,200,100,50,100,200,100,500,100,100,100,50,200,100,100,100,200,50,200,100,100,100,50,100,50,500,500,100,200,50,200,200,50,100,50,100,50,100,200,500,100,50,500,500,500,100,500,50,50,50,500,50,100,100,200,100,500,500,100,50,200,100,50,100,500,50,50,200,200,500,50,50,200,100,50,50,200,500,500,50"
# Node 2 random traffic
dtnsim.node[2].app.enable = true
dtnsim.node[2].app.bundlesNumber = "2,15,2,41,29,34,12,41,49,22,40,26,42,5,39,32,46,1,35,4,25,17,45,25,21,30,48,8,40,5,32,5,43,27,31,39,39,38,15,29,20,25,13,14,5,34,2,23,25,31,43,30,38,38,8,18,15,18,21,25,2,10,27,34,28,14,22,50,47,34,8,11,40,16,9,14,44,41,34,17,50,33,14,16,39,36,44,37,17,41,4,33,42,16,43,22,36,23,41,14"
dtnsim.node[2].app.start = "71,73,15,36,25,82,24,29,58,48,62,68,26,53,43,2,27,30,77,95,62,38,4,74,67,91,34,9,33,29,19,36,43,85,92,4,38,37,41,15,32,32,40,61,80,37,89,41,47,71,17,58,36,47,88,96,16,75,65,55,1,75,97,56,35,11,59,45,38,94,72,98,1,32,39,91,42,41,77,70,20,11,29,51,24,84,30,91,27,42,35,94,38,56,11,17,91,27,32,5"
dtnsim.node[2].app.destinationEid = "156,36,234,167,91,233,204,80,37,17,148,108,32,180,186,45,93,230,142,7,29,238,80,147,197,25,152,6,125,132,12,115,72,179,150,18,49,154,38,165,108,85,16,132,140,178,187,178,230,187,86,133,76,132,170,33,75,3,227,86,65,104,160,229,110,240,61,185,136,206,101,61,35,176,47,143,76,116,27,70,125,52,203,77,213,62,87,159,104,195,79,95,11,72,128,172,143,119,146,162"
dtnsim.node[2].app.size = "200,100,50,200,200,100,200,200,200,500,500,200,500,500,100,200,500,50,200,100,50,200,200,500,500,200,200,50,100,500,50,50,100,50,50,500,50,500,100,50,100,50,200,500,200,500,50,200,100,200,50,100,500,50,50,500,50,100,200,50,500,500,100,100,200,50,500,200,500,200,50,100,50,50,200,50,500,200,500,100,50,50,100,500,50,50,100,100,200,500,100,200,200,50,50,500,50,50,500,50"
# Node 3 random traffic
dtnsim.node[3].app.enable = true
dtnsim.node[3].app.bundlesNumber = "49,2,17,46,29,46,35,44,28,6,36,49,48,14,41,12,27,2,17,44,5,34,4,5,19,24,47,28,42,10,15,29,32,44,5,1,48,48,35,33,22,1,29,11,15,38,1,22,20,45,10,46,46,49,49,12,21,20,9,25,13,14,1,46,22,29,37,24,40,43,42,18,6,36,42,22,46,11,3,38,6,5,10,17,35,10,43,47,39,16,14,29,14,19,42,15,17,40,10,12"
dtnsim.node[3].app.start = "84,17,67,51,5,36,3,98,93,23,96,30,40,92,79,32,72,54,9,50,63,34,48,21,15,57,4,65,70,28,28,71,44,24,77,73,64,26,95,68,43,3,22,36,19,34,34,80,55,93,65,47,89,66,68,4,98,95,20,28,96,22,23,57,39,39,22,84,77,87,93,27,91,99,44,99,14,61,65,26,65,43,39,14,83,60,95,91,66,70,69,60,99,3,76,39,17,84,64,47"
dtnsim.node[3].app.destinationEid = "176,105,159,30,108,190,172,89,35,33,137,39,83,184,96,137,93,61,27,26,126,194,233,186,101,33,163,45,124,139,152,60,12,152,73,48,207,188,130,39,190,86,219,22,12,207,5,173,43,171,95,217,18,193,120,99,182,226,64,60,218,11,170,150,173,121,130,190,167,170,148,56,48,165,63,37,58,206,216,144,150,123,15,232,216,159,76,73,160,139,95,144,44,89,34,71,184,146,158,109"
dtnsim.node[3].app.size = "100,500,100,50,50,200,500,100,500,100,200,50,50,200,500,50,200,100,50,200,200,50,200,200,500,100,50,200,200,50,200,100,200,100,100,50,50,50,500,50,200,200,50,50,200,500,100,50,100,50,500,200,50,500,200,100,100,200,500,200,50,500,500,50,200,50,500,500,500,100,200,500,500,100,50,50,50,100,50,200,200,50,500,200,100,500,200,500,50,50,50,200,200,50,500,50,500,500,200,500"
# Node 4 random traffic
dtnsim.node[4].app.enable = true
dtnsim.node[4].app.bundlesNumber = "3,19,33,6,30,40,2,1,24,42,16,12,11,29,13,19,41,49,38,8,20,38,4,46,3,14,47,14,41,31,43,48,33,3,5,6,16,3,40,19,46,37,30,2,4,41,5,39,33,30,20,46,42,24,2,28,16,18,29,14,41,6,15,28,40,46,32,13,21,5,36,8,38,21,3,47,26,20,7,41,29,17,47,4,17,45,39,14,18,44,25,17,9,3,18,42,40,9,3,21"
dtnsim.node[4].app.start = "91,25,28,82,16,53,18,2,12,2,78,49,36,91,12,43,26,39,68,51,71,26,98,85,97,88,30,32,89,87,21,34,59,48,34,19,75,54,76,74,61,80,71,44,84,31,16,14,77,26,80,88,90,22,74,85,17,80,66,54,18,98,56,38,52,63,76,46,4,89,100,18,14,51,46,40,94,14,100,46,61,57,47,21,12,6,69,40,64,11,86,61,68,75,72,100,63,47,88,88"
dtnsim.node[4].app.destinationEid = "25,94,237,209,216,53,159,121,182,59,124,10,128,91,95,100,116,112,146,238,181,39,139,104,73,155,146,113,172,174,75,74,223,147,111,219,174,136,182,86,231,45,237,35,148,55,176,94,173,127,90,224,36,151,228,197,47,201,7,49,137,209,173,3,216,65,217,67,24,79,106,225,171,209,108,162,104,214,163,54,192,229,82,153,155,192,8,173,96,71,133,204,62,26,38,93,160,13,84,217"
dtnsim.node[4].app.size = "500,50,200,500,500,50,100,50,100,50,500,500,100,200,100,50,200,200,50,50,50,100,200,500,500,200,100,100,50,100,200,500,50,100,100,500,200,50,200,100,500,500,500,100,50,500,500,100,100,50,100,200,50,50,100,200,200,500,200,500,200,200,200,200,200,500,50,50,500,50,50,200,50,100,100,50,500,100,200,200,500,100,500,200,200,200,50,500,100,100,500,500,100,50,500,500,50,50,500,50"
# Node 5 random traffic
dtnsim.node[5].app.enable = true
dtnsim.node[5].app.bundlesNumber = "48,41,30,47,3,13,47,1,28,40,37,32,31,7,38,2,40,50,17,40,42,44,22,49,38,19,3,28,48,4,4,29,47,29,46,33,37,1,40,22,47,8,50,41,17,46,49,37,12,32,10,47,45,16,18,17,1,17,11,7,21,17,32,12,21,50,6,37,1,13,12,20,21,46,13,36,9,27,21,3,17,41,31,30,40,21,12,10,22,40,48,7,49,15,6,20,6,11,29,21"
dtnsim.node[5].app.start = "82,17,33,42,21,35,89,61,92,78,57,95,62,11,27,22,74,28,11,79,15,73,66,28,14,47,96,56,71,57,14,45,82,79,61,37,67,66,85,93,25,8,45,72,33,53,53,3,77,65,55,15,65,54,75,6,60,77,32,13,9,25,72,78,67,27,44,66,44,3,38,40,61,84,5,46,16,82,5,99,50,34,25,30,22,44,92,10,8,45,85,61,81,89,56,23,47,49,52,58"
dtnsim.node[5].app.destinationEid = "119,181,109,132,3,4,54,135,37,39,163,80,128,129,100,79,211,161,50,153,167,66,101,119,154,118,167,71,97,22,13,4,120,78,117,138,30,126,79,230,88,50,11,230,72,226,212,173,213,140,142,91,124,156,89,87,140,88,135,65,86,239,90,234,198,12,139,226,229,45,173,144,119,216,18,20,193,127,139,124,130,219,180,160,77,15,239,199,209,239,121,54,196,24,126,50,13,115,145,101"
dtnsim.node[5].app.size = "200,50,100,100,50,200,200,500,200,500,50,200,200,500,50,50,50,200,200,200,200,500,50,500,200,50,200,50,500,100,500,100,50,500,500,500,50,100,500,500,50,500,100,100,200,50,50,200,100,100,200,100,200,50,50,200,500,50,50,200,50,500,100,50,500,200,200,100,500,200,50,200,100,50,50,50,50,100,200,100,200,100,50,100,500,500,500,200,500,100,100,500,200,200,200,50,500,100,500,500"
# Node 6 random traffic
dtnsim.node[6].app.enable = true
dtnsim.node[6].app.bundlesNumber = "12,38,11,44,41,10,25,29,39,47,16,12,46,17,42,49,40,38,11,18,14,50,23,6,17,13,2,33,47,26,4,4,15,32,36,47,18,25,38,30,42,4,25,16,31,7,49,16,26,7,39,1,21,9,20,26,1,17,11,44,20,8,26,49,41,37,17,17,39,9,31,50,26,15,25,38,24,50,2,4,31,11,41,47,2,44,32,40,41,30,5,21,11,38,12,48,26,28,5,41"
dtnsim.node[6].app.start = "5,81,25,78,61,2,90,39,23,66,30,3,89,85,59,32,71,44,43,5,70,37,41,97,21,34,88,32,41,28,38,86,9,4,100,81,36,15,53,37,51,57,63,44,18,55,59,28,14,18,67,48,86,91,11,46,34,27,17,49,65,11,19,47,10,25,22,99,59,18,52,71,56,4,61,54,99,37,46,20,31,40,18,82,77,47,99,30,35,20,14,59,80,83,90,52,41,72,52,99"
dtnsim.node[6].app.destinationEid = "76,174,150,105,156,212,166,51,32,170,127,201,187,221,92,77,175,153,31,143,81,197,197,148,11,54,17,218,87,67,46,179,163,132,239,217,154,187,222,46,142,115,212,233,93,142,73,75,19,231,59,9,199,121,48,124,39,210,69,27,139,93,147,153,116,54,140,103,227,195,233,198,211,29,54,3,33,222,222,110,175,168,227,148,161,66,90,30,42,101,4,205,98,69,172,172,153,207,183,170"
dtnsim.node[6].app.size = "500,50,500,100,200,100,500,50,100,100,50,50,200,50,500,50,500,50,50,100,100,100,200,500,50,50,50,100,500,100,50,50,100,500,100,500,200,100,100,100,200,200,100,100,500,200,200,50,100,100,200,200,50,500,200,100,100,500,200,500,200,500,200,500,100,50,50,50,500,500,50,200,200,500,500,200,500,100,500,500,500,200,50,100,200,50,100,500,500,100,500,100,50,200,50,500,100,200,100,100"
# Node 7 random traffic
dtnsim.node[7].app.enable = true
dtnsim.node[7].app.bundlesNumber = "38,28,26,11,16,25,40,34,26,34,3,1,5,17,17,23,12,2,9,28,48,46,29,43,40,13,15,11,6,39,18,44,31,46,18,31,15,50,41,12,45,44,48,22,29,10,19,33,43,26,18,42,35,14,8,45,37,29,49,41,1,5,48,13,14,27,4,14,49,1,6,23,5,9,24,20,14,2,42,25,7,17,15,3,5,2,16,50,26,25,31,50,5,30,1,5,2,42,19,19"
dtnsim.node[7].app.start = "24,9,56,59,28,45,62,93,52,17,27,93,27,31,19,75,51,44,53,15,60,17,79,14,14,80,66,48,39,98,62,46,86,84,34,83,8,31,16,62,3,22,20,73,100,42,69,1,73,32,81,94,64,95,36,90,44,69,75,61,2,50,24,82,43,2,32,13,88,83,39,58,22,56,14,73,10,66,59,98,94,31,18,89,58,80,26,28,55,52,1,26,80,23,19,22,17,88,83,14"
dtnsim.node[7].app.destinationEid = "115,103,140,4,117,16,147,83,66,22,120,219,38,212,224,126,75,30,23,216,86,176,202,207,126,182,97,81,119,177,233,195,160,17,98,43,62,27,103,191,63,23,73,25,101,228,194,14,217,108,212,196,39,107,117,24,162,156,59,191,28,151,134,53,114,138,17,129,162,45,102,5,50,31,73,186,68,63,25,57,75,228,63,134,102,60,54,149,12,120,26,140,88,219,37,35,145,229,222,204"
dtnsim.node[7].app.size = "500,200,500,500,500,200,200,50,100,200,100,100,100,500,100,200,500,200,200,100,200,500,100,50,100,500,100,100,100,500,200,100,50,50,500,50,200,500,200,50,50,100,100,50,50,50,500,200,200,500,200,100,50,100,500,100,200,100,50,50,200,50,500,200,100,200,50,100,50,100,100,50,50,100,50,100,500,50,500,50,500,50,500,50,200,50,100,100,100,100,500,50,200,200,50,50,500,50,500,50"
# Node 8 random traffic
dtnsim.node[8].app.enable = true
dtnsim.node[8].app.bundlesNumber = "5,48,4,46,30,9,14,47,23,28,1,12,30,33,41,2,27,46,30,39,30,21,3,48,22,48,33,16,12,41,19,12,7,47,7,8,11,35,20,42,43,36,13,29,35,38,31,47,45,6,20,2,25,1,48,22,32,42,47,3,27,19,46,27,23,48,35,32,5,18,19,40,9,41,49,43,4,13,13,2,45,21,50,38,33,11,8,49,2,17,11,43,31,27,23,31,15,10,2,36"
dtnsim.node[8].app.start = "57,33,50,43,54,17,68,40,95,11,47,98,25,57,31,51,18,95,15,38,55,25,25,87,11,18,27,81,24,8,64,83,87,23,66,56,43,54,16,76,46,59,49,74,75,5,43,71,33,89,69,68,37,93,67,44,80,99,80,83,11,54,63,9,13,81,56,7,86,22,4,9,46,33,18,73,27,13,95,79,13,9,72,32,6,94,10,76,85,98,29,26,90,4,23,2,87,99,25,22"
dtnsim.node[8].app.destinationEid = "204,123,37,91,39,184,126,11,66,203,119,81,62,173,217,199,56,131,98,172,60,42,183,31,231,238,82,240,28,202,114,229,53,83,41,62,73,5,185,119,220,230,78,238,205,139,44,197,110,133,152,5,29,78,7,181,79,160,168,167,69,86,36,93,152,162,34,126,68,42,7,174,193,110,153,93,52,90,233,14,17,193,165,5,189,47,174,2,124,227,165,234,108,21,13,68,115,117,106,66"
dtnsim.node[8].app.size = "500,200,50,50,200,50,100,200,200,200,500,500,200,100,50,200,500,50,200,50,50,50,50,500,50,500,200,50,50,500,50,100,200,200,200,500,500,50,50,100,500,100,500,200,50,500,200,50,200,500,100,100,200,500,100,500,100,50,500,50,50,500,100,200,500,200,500,100,200,200,50,200,200,500,100,200,50,200,500,50,50,100,100,500,500,100,100,500,50,200,50,200,50,50,50,50,100,500,50,100"
# Node 9 random traffic
dtnsim.node[9].app.enable = true
dtnsim.node[9].app.bundlesNumber = "41,43,34,33,3,5,20,21,10,13,31,25,39,27,35,12,43,37,50,35,9,1,38,31,11,7,32,26,8,31,28,38,29,42,17,13,15,42,24,41,3,9,49,3,49,7,5,4,25,28,29,34,38,48,11,20,20,30,4,36,50,29,16,47,17,30,42,27,43,46,13,31,42,19,7,11,47,46,6,20,20,15,12,32,44,20,7,36,42,23,19,30,50,7,49,12,14,44,37,45"
dtnsim.node[9].app.start = "1,19,30,19,57,95,65,14,33,10,9,77,83,65,94,35,90,100,21,35,66,46,78,74,72,84,65,99,85,89,67,9,58,63,52,78,93,52,78,55,90,52,24,85,1,51,42,83,34,37,18,80,8,70,22,76,71,35,28,2,15,17,47,29,17,33,31,19,10,25,63,82,4,43,37,84,73,87,72,54,1,37,85,29,43,12,62,62,64,41,17,17,26,37,38,62,69,82,71,17"
dtnsim.node[9].app.destinationEid = "66,92,230,20,145,134,75,155,162,78,56,210,182,104,101,41,48,62,160,50,140,64,97,180,108,105,53,64,164,55,226,71,157,115,195,132,59,16,187,165,178,193,112,171,127,146,10,52,7,63,127,26,223,78,69,101,122,192,176,129,144,106,112,223,161,167,22,194,147,140,154,223,108,57,223,167,30,43,176,142,14,135,127,168,141,173,45,34,67,180,181,71,75,92,159,163,61,221,12,11"
dtnsim.node[9].app.size = "100,200,200,100,200,50,500,50,500,50,50,500,50,100,200,50,200,50,500,50,200,50,500,50,200,500,500,500,50,100,500,200,500,200,100,50,500,200,500,500,500,50,500,50,500,200,100,100,200,100,500,200,500,500,50,500,500,500,500,500,100,500,200,200,200,50,500,500,500,50,500,500,50,100,200,500,200,50,50,50,50,50,50,500,200,200,500,100,50,500,200,200,200,500,50,500,500,200,500,500"
# Node 10 random traffic
dtnsim.node[10].app.enable = true
dtnsim.node[10].app.bundlesNumber = "48,25,35,23,49,27,26,29,32,43,32,29,10,38,7,23,7,5,11,20,6,35,33,21,24,39,40,7,38,45,35,41,9,7,7,18,20,47,39,28,33,44,31,10,27,9,48,31,25,14,20,50,46,50,7,5,48,27,35,50,24,16,41,29,19,48,24,17,12,5,9,41,4,50,5,33,50,28,6,24,47,3,48,27,20,36,30,39,16,18,10,40,23,40,34,25,18,27,22,32"
dtnsim.node[10].app.start = "18,100,55,17,20,62,25,74,5,58,79,1,22,10,28,97,63,57,10,72,54,95,38,13,49,71,65,10,29,52,54,32,16,71,12,66,48,100,34,6,57,88,100,86,43,36,7,94,85,84,81,29,68,34,60,61,42,23,56,36,5,93,74,73,46,88,3,22,42,36,57,49,81,51,46,32,38,89,61,42,100,32,90,43,80,78,55,21,91,72,15,43,78,18,27,78,18,27,2,46"
dtnsim.node[10].app.destinationEid = "24,36,11,196,132,53,135,162,201,83,9,226,110,64,51,206,171,139,168,65,143,122,111,72,191,71,236,84,36,81,7,8,59,155,157,9,110,210,182,108,74,183,174,83,152,121,117,156,63,206,179,84,124,110,225,160,190,191,39,8,82,177,216,223,1,140,182,174,164,95,25,151,236,206,42,153,211,14,37,175,160,220,220,124,162,165,96,84,233,146,41,24,42,138,107,174,149,99,89,157"
dtnsim.node[10].app.size = "100,200,200,50,500,200,100,100,100,200,50,100,50,500,50,50,500,100,100,100,200,50,50,200,200,200,200,500,200,200,200,50,50,100,50,100,200,500,50,100,50,100,500,50,100,50,100,200,200,200,500,200,500,500,100,100,100,50,100,200,200,100,500,50,200,500,500,200,50,100,200,50,50,200,100,500,200,50,200,200,50,50,200,50,200,500,200,200,50,50,100,50,100,200,100,500,200,200,100,50"
# Node 11 random traffic
dtnsim.node[11].app.enable = true
dtnsim.node[11].app.bundlesNumber = "17,3,26,12,24,39,33,10,3,11,34,6,43,17,30,49,32,42,26,26,37,4,30,30,22,43,12,29,5,11,20,34,21,2,21,16,49,13,8,36,17,35,17,48,9,5,27,17,5,24,30,5,29,23,6,39,36,34,39,37,6,33,27,38,18,27,35,42,32,13,21,37,20,37,43,28,46,9,49,3,27,46,20,40,48,43,47,2,1,33,26,12,10,1,50,44,31,17,38,17"
dtnsim.node[11].app.start = "70,49,92,45,69,48,20,33,20,77,22,82,52,31,99,100,43,63,16,71,91,1,11,57,87,53,45,38,3,46,9,39,41,52,66,5,45,87,20,89,8,87,84,5,17,5,48,22,56,31,29,54,28,42,98,23,91,100,21,29,79,38,76,54,14,80,9,3,56,86,51,32,61,91,6,98,48,65,41,54,18,5,100,3,51,38,77,36,78,55,44,94,64,40,1,19,65,90,62,13"
dtnsim.node[11].app.destinationEid = "91,206,67,148,77,233,46,140,146,236,143,108,24,16,37,60,21,145,24,193,47,72,172,42,130,167,152,37,128,141,41,141,106,224,204,62,143,149,104,167,75,192,55,71,189,87,82,87,30,194,70,97,174,99,121,162,211,127,87,97,87,239,182,15,220,128,5,29,54,156,187,196,225,90,82,210,40,44,8,60,187,21,236,13,216,106,193,164,156,119,240,198,62,22,16,29,89,73,29,171"
dtnsim.node[11].app.size = "200,500,200,200,100,50,50,100,200,100,500,100,100,100,50,100,100,200,100,200,200,200,200,50,200,200,200,200,500,500,50,100,200,100,500,500,200,50,50,200,50,200,100,200,200,100,500,50,200,200,50,200,50,50,50,50,500,500,500,50,200,500,500,200,100,50,200,100,500,500,500,100,200,500,500,50,500,50,50,50,200,100,50,500,100,200,50,500,50,200,500,100,200,50,500,200,50,100,200,100"
# Node 12 random traffic
dtnsim.node[12].app.enable = true
dtnsim.node[12].app.bundlesNumber = "19,37,28,22,35,8,34,12,41,15,40,48,19,13,5,25,47,37,15,27,28,7,10,11,49,31,28,14,21,38,35,46,49,35,4,42,45,6,28,49,28,25,43,42,14,23,43,45,3,50,48,12,27,18,29,19,19,37,42,13,38,2,29,30,1,26,7,16,27,24,20,7,3,31,42,18,41,49,24,27,14,2,44,8,12,30,19,4,29,47,21,24,14,39,30,39,35,9,40,43"
dtnsim.node[12].app.start = "5,49,38,92,98,1,21,12,73,22,47,96,100,68,25,41,13,28,67,61,64,68,59,20,64,93,98,93,2,69,51,51,19,88,29,84,41,65,2,40,45,40,24,61,1,98,73,63,50,78,58,26,78,90,47,32,39,48,81,7,63,97,69,6,50,39,26,45,33,11,52,37,60,72,18,66,87,43,87,57,100,94,12,25,43,95,89,21,25,13,64,26,95,50,58,91,12,25,30,32"
dtnsim.node[12].app.destinationEid = "2,46,209,16,211,123,74,222,186,41,29,84,32,87,238,103,34,31,111,143,184,77,29,114,81,64,113,212,28,15,90,112,186,47,151,204,114,51,23,63,132,61,190,208,60,193,152,233,72,39,219,218,6,76,228,129,84,51,61,77,21,46,73,220,181,36,151,52,83,143,90,21,6,22,210,179,140,188,203,41,104,29,91,109,211,66,29,63,137,128,153,13,123,130,95,203,55,211,145,41"
dtnsim.node[12].app.size = "500,200,100,500,100,500,500,50,100,50,100,50,50,100,100,50,500,50,50,50,200,50,500,500,50,50,200,50,100,50,500,500,100,100,200,100,200,100,50,100,50,100,100,500,50,50,200,500,50,50,100,200,50,100,50,500,100,200,100,100,200,200,100,500,200,500,500,500,200,500,100,200,50,500,200,100,500,200,500,500,100,500,50,200,50,500,100,200,200,100,200,500,500,50,50,500,500,50,100,500"
# Node 13 random traffic
dtnsim.node[13].app.enable = true
dtnsim.node[13].app.bundlesNumber = "21,10,50,18,12,6,30,18,45,48,2,45,10,11,15,41,30,2,18,24,12,45,25,35,27,47,23,5,42,9,1,33,43,40,6,40,50,28,24,35,29,40,11,1,12,5,47,21,30,38,50,49,1,27,8,36,25,23,35,19,40,49,45,42,22,49,6,38,5,18,4,24,9,11,27,5,50,1,22,45,25,30,11,33,39,43,33,12,6,33,30,41,37,6,7,21,34,47,10,6"
dtnsim.node[13].app.start = "13,62,77,48,90,76,81,11,65,6,39,40,20,71,1,16,57,88,79,63,27,28,98,74,44,52,17,71,46,47,32,30,43,49,55,87,75,92,57,57,3,92,4,97,85,22,66,49,24,39,39,34,9,98,60,42,72,88,57,40,26,25,10,26,66,25,91,43,89,24,26,67,39,24,81,56,81,75,48,27,79,63,46,69,83,19,7,19,13,9,47,1,12,100,7,18,26,98,26,19"
dtnsim.node[13].app.destinationEid = "148,52,51,226,48,99,137,147,206,131,1,149,91,35,14,116,190,186,118,141,25,16,239,29,114,203,140,20,166,51,203,130,27,47,195,228,206,32,54,32,41,124,63,106,198,20,195,122,128,202,98,90,53,65,182,222,165,14,17,87,20,4,85,189,113,221,90,217,48,139,153,84,111,175,68,89,180,130,233,216,171,151,162,46,20,237,159,197,107,122,86,175,155,153,178,134,176,46,143,188"
dtnsim.node[13].app.size = "50,100,100,500,200,50,50,50,500,200,100,50,200,500,100,100,200,100,500,50,200,50,200,200,50,50,500,200,100,50,500,50,100,100,500,500,50,500,500,50,200,50,200,100,200,100,200,500,100,50,500,500,200,100,200,200,200,200,100,100,100,50,500,50,500,500,200,50,100,100,50,500,100,100,200,500,100,100,50,50,200,500,500,500,100,200,500,100,500,500,500,50,50,100,50,200,100,200,200,50"
# Node 14 random traffic
dtnsim.node[14].app.enable = true
dtnsim.node[14].app.bundlesNumber = "4,50,30,36,47,49,8,5,23,14,9,9,30,15,39,42,38,7,8,13,8,30,42,18,34,22,6,23,12,15,19,39,15,42,47,28,10,20,45,12,34,17,34,4,37,48,22,44,46,48,25,37,2,44,26,16,17,21,10,42,6,23,17,24,32,8,37,9,40,33,21,36,34,41,50,6,2,29,43,37,27,12,30,24,6,21,16,1,42,43,49,17,15,20,3,13,16,37,20,11"
dtnsim.node[14].app.start = "12,44,37,63,59,62,6,53,94,86,1,58,53,20,22,82,61,60,32,80,3,2,46,89,76,38,100,17,80,26,67,65,44,69,8,48,61,14,37,21,82,75,88,69,95,32,35,77,44,22,31,38,81,33,71,65,50,29,92,42,62,12,57,76,65,27,38,77,59,85,55,60,22,50,8,81,2,84,51,71,36,1,85,2,20,73,39,28,40,56,64,67,82,96,16,83,70,9,69,28"
dtnsim.node[14].app.destinationEid = "167,70,235,140,115,157,44,91,206,71,145,39,173,184,63,66,237,143,222,27,184,21,28,213,47,111,66,100,206,201,29,165,49,162,159,153,222,101,218,69,146,48,114,50,31,18,142,118,164,40,237,99,98,69,142,98,228,61,129,173,39,38,226,173,70,130,211,167,125,219,29,23,175,226,89,152,40,178,232,144,199,144,63,197,11,220,143,42,113,181,143,160,6,234,66,122,60,182,142,161"
dtnsim.node[14].app.size = "200,500,50,500,200,200,100,200,500,50,100,100,200,500,100,50,50,200,100,200,50,200,200,50,500,50,100,500,500,50,200,500,100,50,50,500,500,50,200,200,50,100,100,100,500,50,50,100,200,100,200,50,500,500,50,50,100,200,100,500,500,50,500,500,500,100,500,50,500,100,50,100,50,500,200,500,500,200,100,200,200,100,50,500,50,100,100,100,200,500,50,500,100,500,200,200,100,200,50,100"
# Node 15 random traffic
dtnsim.node[15].app.enable = true
dtnsim.node[15].app.bundlesNumber = "15,34,48,40,17,9,21,24,12,42,49,31,29,7,43,25,11,45,8,48,1,30,46,9,9,47,28,13,38,12,28,20,8,7,43,24,29,37,23,46,6,27,13,43,2,6,24,5,19,33,23,10,48,10,4,48,43,25,50,39,11,3,36,6,35,40,21,46,13,21,27,20,16,48,46,19,50,38,31,33,3,34,39,20,33,32,18,6,46,43,6,43,31,32,11,48,14,39,17,19"
dtnsim.node[15].app.start = "82,11,38,81,43,36,91,37,6,44,28,89,89,28,61,65,18,6,81,32,92,19,21,71,36,86,13,57,73,63,64,7,91,25,74,68,85,12,24,16,37,72,69,90,72,63,87,7,23,14,28,24,86,9,76,29,3,62,6,40,58,36,63,25,22,63,60,78,27,45,30,71,35,66,9,73,52,39,73,75,4,86,85,33,68,33,77,12,97,32,19,84,50,95,16,66,58,5,61,29"
dtnsim.node[15].app.destinationEid = "68,18,78,190,46,79,216,218,58,147,67,167,195,97,27,216,50,199,18,228,47,201,67,122,170,38,10,135,141,212,131,227,152,222,57,193,196,163,22,70,73,177,205,68,115,97,216,239,215,66,224,33,164,214,16,87,150,63,31,3,214,59,11,49,159,67,184,156,104,32,192,12,63,180,122,9,121,122,90,132,168,152,14,115,58,108,152,106,68,96,41,185,123,59,25,137,2,96,234,90"
dtnsim.node[15].app.size = "100,500,200,100,100,50,200,200,50,50,200,200,500,50,500,500,100,500,50,200,200,500,200,200,100,500,100,200,500,500,100,200,200,50,100,500,500,500,100,50,50,200,500,100,50,500,50,100,50,200,500,200,100,100,500,200,200,100,50,500,200,50,50,50,200,100,500,200,500,200,200,100,100,200,500,200,500,50,200,100,100,100,100,100,100,200,200,500,200,50,50,50,200,100,50,200,100,100,50,200"
# Node 16 random traffic
dtnsim.node[16].app.enable = true
dtnsim.node[16].app.bundlesNumber = "6,30,43,18,34,33,43,22,1,25,4,5,41,41,8,16,15,3,2,5,16,22,27,22,43,20,24,44,20,6,20,46,33,24,45,20,15,41,20,13,2,41,37,38,25,47,42,47,19,34,24,26,40,46,17,25,21,37,5,6,27,4,23,4,43,19,28,8,35,39,1,42,14,26,44,21,23,24,30,25,44,26,22,27,25,29,28,29,3,42,2,23,7,49,25,5,49,2,10,44"
dtnsim.node[16].app.start = "71,100,51,18,64,64,42,20,74,75,60,64,31,71,52,40,99,53,3,82,22,81,14,78,79,48,12,98,85,56,3,88,79,60,1,81,70,27,22,8,29,27,39,54,76,8,68,77,84,23,29,5,39,36,10,9,19,19,24,15,77,83,82,42,60,20,44,34,21,100,60,18,12,58,14,32,25,24,11,43,53,20,78,60,32,98,88,80,33,18,47,72,80,34,95,55,99,10,100,38"
dtnsim.node[16].app.destinationEid = "110,195,210,193,34,199,96,168,226,150,65,182,2,119,83,105,12,21,205,237,225,148,9,183,101,37,149,113,133,210,58,112,99,10,160,215,192,158,98,123,56,220,165,208,202,160,234,112,154,180,171,227,165,137,206,101,3,140,206,142,31,176,142,13,24,186,58,75,11,225,92,97,209,38,87,125,163,192,68,130,118,52,13,234,108,52,33,165,202,217,186,10,23,78,122,235,60,84,1,173"
dtnsim.node[16].app.size = "50,50,500,500,200,500,100,200,500,500,200,50,50,200,500,100,500,50,50,50,500,100,500,500,200,50,50,50,50,500,100,100,500,50,500,200,100,200,100,50,200,100,50,50,50,100,200,50,500,200,500,500,50,100,500,500,200,200,500,50,200,200,500,50,100,200,50,200,200,200,100,100,100,200,500,100,200,200,50,50,100,200,100,50,500,500,50,100,200,50,100,50,500,50,100,200,200,100,100,50"
# Node 17 random traffic
dtnsim.node[17].app.enable = true
dtnsim.node[17].app.bundlesNumber = "48,7,36,47,3,21,3,27,43,41,48,7,16,50,35,1,11,41,6,5,16,46,22,15,28,32,8,22,31,29,38,31,6,43,13,35,48,33,17,31,25,4,8,27,14,28,40,32,14,4,27,14,10,24,19,28,9,48,2,27,39,31,41,47,8,50,27,34,14,13,7,9,17,21,50,23,49,16,18,40,12,35,30,13,47,50,4,4,19,4,6,42,37,21,47,28,42,33,32,34"
dtnsim.node[17].app.start = "10,68,57,28,92,58,84,39,44,83,96,53,65,57,93,70,50,63,8,59,35,33,26,36,57,66,43,51,27,100,30,58,66,19,68,51,99,15,70,8,93,35,66,21,90,12,65,73,32,81,62,93,57,15,1,99,39,15,27,97,69,75,2,69,76,33,70,85,56,91,98,76,25,19,67,53,88,74,19,11,6,78,48,75,89,50,15,1,100,2,38,25,13,88,71,56,98,74,65,36"
dtnsim.node[17].app.destinationEid = "201,35,123,111,2,152,55,98,178,1,110,125,168,172,58,185,67,230,99,144,170,126,223,86,25,53,214,203,47,212,104,225,76,218,113,80,170,83,191,224,57,219,168,98,72,11,143,38,85,130,16,66,129,143,35,89,65,211,133,101,112,5,76,150,70,165,240,94,207,7,148,21,84,178,232,32,234,41,208,21,113,158,165,56,97,166,11,227,238,235,18,72,104,32,3,96,132,237,169,26"
dtnsim.node[17].app.size = "50,50,200,50,500,100,50,50,50,100,100,50,500,100,100,500,100,200,50,50,500,500,50,200,50,100,200,500,100,500,200,50,200,50,500,500,500,500,200,100,200,100,200,100,500,100,500,500,200,100,50,200,200,100,200,100,50,100,50,500,100,200,50,50,500,50,200,50,100,100,50,200,100,100,50,200,50,500,50,50,500,100,500,100,200,100,50,500,500,50,200,200,200,500,200,50,100,100,50,100"
# Node 18 random traffic
dtnsim.node[18].app.enable = true
dtnsim.node[18].app.bundlesNumber = "42,19,19,33,48,18,37,32,45,41,20,12,20,46,21,21,29,31,39,33,38,46,22,5,7,28,41,21,5,30,41,20,1,41,31,50,3,8,17,27,26,43,30,20,45,35,1,16,41,1,13,9,28,39,28,33,47,37,50,19,41,34,48,11,13,39,28,50,31,13,44,9,6,4,34,3,19,36,37,11,38,31,49,24,49,49,12,33,6,35,33,10,35,41,27,48,30,21,28,31"
dtnsim.node[18].app.start = "68,89,28,44,98,74,40,51,45,80,23,19,25,64,94,18,29,46,76,19,73,69,45,31,53,3,73,54,42,13,13,49,46,77,49,86,76,65,47,66,44,6,90,68,95,75,53,92,4,19,86,17,18,22,76,60,99,67,14,85,97,73,55,89,93,18,70,14,72,4,5,49,28,49,65,67,96,83,82,42,36,4,11,84,23,29,95,93,53,59,3,25,17,64,93,6,72,4,60,52"
dtnsim.node[18].app.destinationEid = "123,226,10,11,189,216,58,31,32,202,35,201,210,81,46,159,21,181,46,83,110,231,26,2,58,200,52,77,129,72,52,55,76,169,30,191,81,132,163,101,210,162,152,133,110,98,6,6,229,194,123,70,35,55,143,142,151,55,161,108,211,157,145,192,50,95,141,159,216,204,194,138,1,221,129,69,51,36,13,51,189,90,134,44,158,141,63,190,115,239,228,28,169,181,217,150,105,53,229,21"
dtnsim.node[18].app.size = "50,200,50,200,50,500,200,500,200,200,100,50,100,500,50,100,100,50,50,200,100,500,200,500,50,500,200,100,500,50,50,100,200,200,100,500,200,100,500,500,50,50,200,100,200,50,200,50,50,50,500,200,50,200,200,200,50,50,200,200,500,100,100,200,100,200,50,500,200,500,50,500,500,500,50,200,100,50,100,500,500,200,200,500,100,200,100,200,500,200,100,200,500,100,500,50,100,50,500,50"
# Node 19 random traffic
dtnsim.node[19].app.enable = true
dtnsim.node[19].app.bundlesNumber = "15,44,17,28,32,10,5,3,43,8,15,35,14,43,3,46,38,48,15,32,41,44,30,13,11,36,31,19,27,47,16,19,34,18,42,10,31,12,32,32,16,42,45,28,24,12,38,5,45,7,44,12,5,9,30,30,12,25,42,50,38,4,32,29,18,25,21,15,50,37,36,19,14,2,11,36,47,17,25,30,41,50,20,16,21,17,18,47,48,47,6,16,10,7,48,13,5,11,34,6"
dtnsim.node[19].app.start = "48,96,90,59,36,79,4,38,35,3,4,3,60,3,100,15,63,83,49,26,50,13,84,11,80,87,15,48,80,42,40,66,68,81,51,75,9,39,43,29,69,78,7,81,38,99,93,91,28,64,8,20,29,14,96,48,76,84,60,30,99,88,28,40,33,1,75,2,57,76,95,24,31,16,81,31,98,62,68,40,73,100,89,73,22,17,9,61,2,72,4,35,70,36,79,8,81,51,58,97"
dtnsim.node[19].app.destinationEid = "100,168,227,16,206,166,84,50,159,44,146,176,81,53,10,197,232,56,114,56,119,148,199,91,78,91,17,104,114,50,157,102,239,101,68,194,99,75,29,192,188,233,8,198,91,115,237,111,26,111,74,73,224,207,56,7,124,192,79,144,130,172,91,167,154,169,178,21,177,146,184,17,199,143,237,236,212,197,130,97,78,205,235,129,156,32,110,146,109,184,68,125,107,237,96,156,83,155,145,154"
dtnsim.node[19].app.size = "50,50,50,500,50,500,500,100,100,100,100,500,50,100,200,500,500,500,50,100,200,50,100,50,200,100,500,50,500,500,100,200,500,100,100,500,50,100,500,200,500,500,100,100,50,50,50,200,100,50,500,100,500,100,500,200,50,50,500,100,200,500,50,500,100,50,500,500,500,100,100,50,500,200,100,100,50,500,100,100,200,50,100,100,50,50,50,100,200,500,100,200,50,500,500,50,500,100,500,200"
# Node 20 random traffic
dtnsim.node[20].app.enable = true
dtnsim.node[20].app.bundlesNumber = "3,33,24,49,41,19,3,45,47,38,48,30,44,10,15,25,20,10,33,46,24,28,20,39,50,47,2,49,45,50,2,22,34,27,1,17,48,28,10,36,18,21,44,20,32,47,18,35,32,19,26,31,2,4,41,46,28,43,41,50,49,9,49,27,26,1,12,45,46,5,5,50,37,49,26,15,8,31,9,14,12,18,31,28,34,47,11,32,43,34,2,33,10,24,28,38,35,40,8,42"
dtnsim.node[20].app.start = "95,84,10,90,29,64,100,7,100,39,16,4,23,67,72,39,89,73,36,100,81,71,75,32,22,57,83,78,19,33,35,37,20,81,45,31,69,31,100,42,1,55,10,45,80,19,70,22,58,62,24,62,36,55,33,96,9,85,68,12,44,47,54,46,65,79,68,46,20,48,11,28,5,71,54,51,99,50,70,39,90,47,42,62,79,19,3,82,22,99,51,55,92,3,3,56,88,23,48,28"