[General]
network = src.dtnsim										
repeat = 1
allow-object-stealing-on-deletion = true

# Simulation end time
sim-time-limit = 84600s

# Nodes quantity (identifiers (EiDs) matches their index, EiD=0 is ignored)			
dtnsim.nodesNumber = 240
dtnsim.node[*].icon = "satellite"

# Nodes's failure rates
dtnsim.node[*].fault.enable = true
dtnsim.node[*].fault.meanTTF = 40s
dtnsim.node[*].fault.meanTTR = 10s

# Mobility
dtnsim.node[*].hasMobility = true
dtnsim.node[*].norad.satIndex = parentIndex()
dtnsim.node[*].norad.satName = "sat"
**.updateInterval = 20s
**.numOfSats = 240
**.satPerPlane = 12
**.altitude = 540
**.planes = 20
**.phaseOffset = 11

dtnsim.node[*].dtn.routing = "antop"
dtnsim.node[*].dtn.printRoutingDebug = true

# --- Random Traffic Configuration ---
# Node 1 random conversational traffic
dtnsim.node[1].app.enable = true
dtnsim.node[1].app.bundlesNumber = "1,1,4,2,5,2,3,5,4,3,2,1,3,3,5,2,3,5,3,5,1,1,3,1,1,3,3,3,5,1,3,5,4,5,5,4,2,1,1,1,2,5,2,4,5,4,3,3,5,5,5,1,5,3,4,4,4,5,3,5,1,1,3,1,2,4,2,3,3,3,3,2,2,2,5,3,4,4,2,3,5,3,3,5,5,4,2,2,4,5,3,3,5,5,4,5,5,1,2,1"
dtnsim.node[1].app.start = "69,9,29,24,62,81,25,99,59,15,34,15,96,62,97,27,89,10,52,30,27,65,81,93,50,85,8,36,47,81,40,17,56,75,19,80,97,5,18,25,59,4,79,59,19,78,43,54,79,48,44,12,65,12,99,45,59,25,77,90,78,26,27,99,79,23,13,52,38,30,13,53,50,64,46,21,73,72,30,13,60,75,24,16,44,84,34,55,65,63,74,60,26,20,50,27,2,15,99,52"
dtnsim.node[1].app.destinationEid = "2,2,2,2,2,2,2,2,2,2,2,2,2,2,2,2,2,2,2,2,2,2,2,2,2,2,2,2,2,2,2,2,2,2,2,2,2,2,2,2,2,2,2,2,2,2,2,2,2,2,2,2,2,2,2,2,2,2,2,2,2,2,2,2,2,2,2,2,2,2,2,2,2,2,2,2,2,2,2,2,2,2,2,2,2,2,2,2,2,2,2,2,2,2,2,2,2,2,2,2"
dtnsim.node[1].app.size = "200,100,50,200,200,50,100,500,200,200,100,500,200,500,100,500,500,200,100,100,200,500,500,100,50,100,50,50,50,500,500,50,50,100,500,50,500,50,500,500,500,100,500,200,100,200,50,500,50,100,100,500,50,100,200,100,100,100,100,100,50,50,500,50,100,50,500,200,200,100,100,50,500,200,200,50,500,100,50,200,200,50,100,200,100,500,200,500,500,50,200,500,100,50,100,50,50,50,200,200"
# Node 2 random conversational traffic
dtnsim.node[2].app.enable = true
dtnsim.node[2].app.bundlesNumber = "2,5,4,2,1,3,4,2,1,4,4,3,3,3,5,4,5,3,5,5,4,5,2,5,2,1,1,2,5,5,1,5,4,1,2,4,4,2,4,5,3,1,4,3,3,2,1,5,2,2,4,3,5,2,4,5,2,4,4,4,1,1,1,2,2,1,4,5,3,5,2,2,1,3,4,4,3,4,4,4,5,1,5,4,4,3,5,3,1,1,2,3,2,2,5,3,2,4,2,5"
dtnsim.node[2].app.start = "16,38,27,85,34,68,23,24,98,69,34,98,20,62,37,31,85,99,56,10,82,22,60,79,22,88,98,28,34,7,61,22,80,60,49,17,21,100,32,84,91,30,100,21,43,40,62,58,74,56,40,22,61,79,34,20,52,90,42,67,75,62,31,28,59,10,100,58,36,88,43,23,50,35,100,7,66,21,75,46,58,53,35,35,41,80,18,94,2,5,10,40,39,64,82,21,72,69,41,77"
dtnsim.node[2].app.destinationEid = "1,1,1,1,1,1,1,1,1,1,1,1,1,1,1,1,1,1,1,1,1,1,1,1,1,1,1,1,1,1,1,1,1,1,1,1,1,1,1,1,1,1,1,1,1,1,1,1,1,1,1,1,1,1,1,1,1,1,1,1,1,1,1,1,1,1,1,1,3,3,3,3,3,3,3,3,3,3,3,3,3,3,3,3,3,3,3,3,3,3,3,3,3,3,3,3,3,3,3,3"
dtnsim.node[2].app.size = "50,500,200,500,100,50,50,500,500,500,500,500,500,100,500,200,200,50,500,50,100,500,200,100,500,100,100,200,50,200,200,100,500,50,200,100,50,50,50,200,50,50,100,500,200,100,500,500,100,500,100,50,200,100,200,500,200,200,200,50,200,200,200,200,200,200,100,200,100,500,200,100,100,500,50,50,200,50,200,100,200,100,200,200,50,100,200,50,200,50,50,100,200,50,200,500,500,200,50,500"
# Node 3 random conversational traffic
dtnsim.node[3].app.enable = true
dtnsim.node[3].app.bundlesNumber = "2,2,2,5,4,5,2,2,2,4,1,5,1,1,1,2,4,2,3,3,5,3,3,2,1,3,4,1,3,2,2,2,1,2,3,5,5,4,1,4,5,1,2,3,1,2,3,5,1,2,3,5,4,1,1,1,1,3,2,3,2,1,5,3,3,1,4,1,1,1,1,5,1,2,1,4,1,2,3,3,5,4,4,2,1,4,4,5,3,2,4,3,2,3,4,2,4,2,1,5"
dtnsim.node[3].app.start = "37,26,100,14,82,19,7,8,45,70,75,77,26,17,47,40,71,41,93,35,96,98,13,16,4,23,42,26,9,12,28,64,79,46,66,42,11,68,25,22,47,19,39,54,71,35,4,100,78,40,15,60,86,86,42,100,60,16,7,74,9,92,72,99,38,89,50,42,87,76,55,3,68,31,41,3,70,94,22,31,22,12,11,1,8,4,25,92,81,26,71,42,32,7,72,10,70,28,46,23"
dtnsim.node[3].app.destinationEid = "2,2,2,2,2,2,2,2,2,2,2,2,4,4,4,4,4,4,4,4,4,4,4,4,4,4,4,4,4,4,4,4,4,4,4,4,4,4,4,4,4,4,4,4,4,4,4,4,4,4,4,4,4,4,4,4,4,4,4,4,4,4,4,4,4,4,4,4,4,4,4,4,4,4,4,4,4,4,4,4,4,4,4,4,4,4,4,4,4,4,4,4,4,4,4,4,4,4,4,4"
dtnsim.node[3].app.size = "500,50,500,50,200,500,100,200,200,100,100,50,50,200,100,100,50,200,200,50,50,200,500,50,200,50,100,500,100,200,100,500,100,500,200,500,50,500,200,500,200,50,50,500,50,100,200,50,100,200,500,100,500,200,100,200,50,100,50,500,50,200,500,200,50,200,200,500,200,200,100,50,100,50,200,200,500,200,200,200,500,200,50,100,50,100,100,200,500,50,50,100,200,100,500,500,100,500,500,50"
# Node 4 random conversational traffic
dtnsim.node[4].app.enable = true
dtnsim.node[4].app.bundlesNumber = "3,3,2,4,1,1,4,2,1,1,2,2,4,2,3,1,2,1,3,2,2,3,3,3,3,3,4,5,1,1,5,2,4,2,5,5,4,5,2,4,4,4,3,4,4,1,3,3,4,2,3,1,4,5,4,4,4,2,2,2,1,3,3,3,2,2,4,5,2,4,4,1,5,1,5,3,1,2,3,2,1,2,4,5,3,5,2,2,3,1,3,2,2,2,4,1,2,4,5,2"
dtnsim.node[4].app.start = "22,53,73,50,44,100,100,18,19,9,10,20,32,73,86,54,43,13,77,48,22,56,77,42,100,82,49,63,100,69,14,80,15,97,78,100,41,91,59,77,13,77,34,42,5,98,32,29,18,3,9,12,99,27,47,79,48,30,57,37,52,57,55,77,6,46,69,81,34,51,96,31,18,54,93,72,81,6,27,11,83,73,10,86,81,66,84,18,89,43,83,56,44,6,53,20,45,34,24,92"
dtnsim.node[4].app.destinationEid = "3,3,3,3,3,3,3,3,3,3,3,3,3,3,3,3,3,3,3,3,3,3,3,3,3,3,3,3,3,3,3,3,3,3,3,3,3,3,3,3,3,3,3,3,3,3,3,3,3,3,3,3,3,3,3,3,3,5,5,5,5,5,5,5,5,5,5,5,5,5,5,5,5,5,5,5,5,5,5,5,5,5,5,5,5,5,5,5,5,5,5,5,5,5,5,5,5,5,5,5"
dtnsim.node[4].app.size = "100,500,500,50,100,200,50,200,50,100,200,200,500,200,200,50,50,100,500,500,500,100,200,200,500,200,50,100,100,500,50,50,200,200,50,200,50,200,500,200,50,200,100,500,200,500,200,500,50,50,200,100,200,100,500,100,50,100,200,100,500,50,100,500,100,200,500,50,50,500,100,200,200,200,50,100,100,500,50,500,100,200,200,200,50,50,200,50,500,500,50,200,100,500,100,500,100,50,100,200"
# Node 5 random conversational traffic
dtnsim.node[5].app.enable = true
dtnsim.node[5].app.bundlesNumber = "3,1,5,3,1,2,1,4,5,1,1,4,5,3,2,2,2,1,3,3,5,4,4,1,4,3,3,2,5,3,5,5,5,3,1,2,1,2,4,3,1,1,3,3,2,5,3,5,4,5,1,1,1,5,4,4,4,2,4,4,2,4,4,1,3,5,3,1,1,3,1,5,4,1,5,3,1,4,3,4,5,4,4,1,3,3,1,1,1,5,5,3,2,5,1,4,3,5,2,3"
dtnsim.node[5].app.start = "36,42,53,66,60,81,14,54,73,82,54,98,34,25,98,75,15,15,87,83,69,95,60,51,12,27,54,38,31,52,66,16,33,94,43,33,48,49,76,79,94,69,49,55,41,30,45,79,80,99,13,6,43,14,37,18,62,68,63,52,44,32,68,65,35,31,84,11,10,36,37,16,16,53,99,80,97,26,3,83,97,92,94,89,44,99,25,53,2,50,85,52,9,98,8,68,63,45,4,94"
dtnsim.node[5].app.destinationEid = "4,4,4,4,4,4,4,4,4,4,4,4,4,4,4,4,4,4,4,4,4,4,4,4,4,4,4,4,4,6,6,6,6,6,6,6,6,6,6,6,6,6,6,6,6,6,6,6,6,6,6,6,6,6,6,6,6,6,6,6,6,6,6,6,6,6,6,6,6,6,6,6,6,6,6,6,6,6,6,6,6,6,6,6,6,6,6,6,6,6,6,6,6,6,6,6,6,6,6,6"
dtnsim.node[5].app.size = "100,100,100,500,50,100,100,50,500,50,100,500,100,200,100,500,200,200,200,100,50,100,50,500,50,200,50,200,200,500,500,50,50,500,500,50,200,500,100,100,500,200,200,50,500,100,50,100,200,500,100,200,200,50,500,500,200,200,200,50,100,500,50,500,50,50,500,200,50,500,200,100,200,50,100,200,500,100,200,100,500,50,200,200,50,200,200,500,500,200,50,500,100,100,200,200,50,50,50,100"
# Node 6 random conversational traffic
dtnsim.node[6].app.enable = true
dtnsim.node[6].app.bundlesNumber = "3,2,4,4,1,2,2,2,4,5,4,5,1,1,1,2,5,1,3,3,5,5,3,2,1,2,5,5,5,5,1,3,3,1,3,4,2,1,3,3,3,4,3,1,3,1,4,1,1,2,5,2,2,4,5,1,1,5,1,3,2,5,4,1,5,1,4,5,3,5,1,2,1,4,3,1,4,1,1,5,1,3,4,5,5,3,3,2,4,1,1,1,1,1,3,5,5,5,2,4"
dtnsim.node[6].app.start = "23,48,82,88,75,57,59,46,34,100,15,46,39,23,63,73,46,40,75,43,40,92,15,18,42,100,98,9,90,47,100,33,59,3,13,100,10,65,52,9,9,32,46,96,38,88,1,39,46,38,86,70,89,63,52,10,20,53,2,25,39,26,90,98,7,66,38,48,39,35,86,58,77,56,44,63,57,52,100,60,1,21,2,73,93,95,23,8,26,84,26,53,61,18,14,14,95,98,44,52"
dtnsim.node[6].app.destinationEid = "5,5,5,5,5,5,5,5,5,5,5,5,5,5,5,5,5,5,5,5,5,5,5,5,5,5,5,5,5,5,5,5,5,5,5,5,5,5,5,5,7,7,7,7,7,7,7,7,7,7,7,7,7,7,7,7,7,7,7,7,7,7,7,7,7,7,7,7,7,7,7,7,7,7,7,7,7,7,7,7,7,7,7,7,7,7,7,7,7,7,7,7,7,7,7,7,7,7,7,7"
dtnsim.node[6].app.size = "500,100,50,100,100,100,100,100,200,50,50,100,100,100,200,50,500,100,100,100,500,50,200,100,500,100,200,50,50,50,100,100,50,200,50,50,500,200,500,200,100,100,100,100,50,500,200,500,50,200,100,100,50,100,100,500,50,100,50,500,200,500,500,100,500,200,500,100,50,200,500,500,50,100,50,50,100,200,100,100,500,200,50,200,100,50,500,200,50,200,200,100,50,500,500,500,200,50,200,500"
# Node 7 random conversational traffic
dtnsim.node[7].app.enable = true
dtnsim.node[7].app.bundlesNumber = "4,4,4,2,5,2,3,2,3,4,2,3,4,2,5,5,2,1,1,2,4,4,3,1,2,4,3,5,3,3,2,5,1,2,4,2,1,1,3,3,3,4,2,2,1,3,5,4,5,5,2,4,2,3,2,5,5,4,5,3,1,4,5,5,1,5,4,5,1,1,5,3,5,1,1,5,4,3,4,3,4,4,4,2,2,1,1,5,2,3,1,2,4,1,4,2,2,5,5,4"
dtnsim.node[7].app.start = "34,51,100,6,56,39,92,74,55,27,63,4,43,34,100,17,44,58,45,45,88,59,81,46,66,66,55,100,65,11,100,31,30,21,100,55,16,71,87,95,77,80,86,50,9,23,58,66,68,49,9,52,15,55,74,59,67,79,52,56,17,93,71,98,9,70,79,75,3,55,2,68,22,88,31,74,30,42,16,67,98,70,42,49,39,29,37,14,72,42,37,95,96,21,10,9,41,26,31,43"
dtnsim.node[7].app.destinationEid = "6,6,6,6,6,6,6,6,6,6,6,6,6,6,6,6,6,6,6,6,6,6,6,6,6,6,6,6,6,6,6,6,6,6,6,6,8,8,8,8,8,8,8,8,8,8,8,8,8,8,8,8,8,8,8,8,8,8,8,8,8,8,8,8,8,8,8,8,8,8,8,8,8,8,8,8,8,8,8,8,8,8,8,8,8,8,8,8,8,8,8,8,8,8,8,8,8,8,8,8"
dtnsim.node[7].app.size = "50,200,100,50,50,200,100,200,100,100,200,500,500,100,200,50,500,200,200,100,50,100,200,100,100,50,50,50,50,100,200,100,500,200,100,50,200,50,200,100,200,200,50,500,50,100,200,50,50,200,500,50,50,200,500,200,50,100,100,50,500,100,50,100,100,100,500,500,50,100,500,500,50,50,500,50,100,200,100,500,500,200,100,50,100,500,100,50,50,50,100,500,50,50,500,50,100,50,500,100"
# Node 8 random conversational traffic
dtnsim.node[8].app.enable = true
dtnsim.node[8].app.bundlesNumber = "4,5,3,4,4,2,4,3,1,5,3,4,1,3,3,2,3,1,4,3,3,2,4,4,2,1,3,4,5,1,5,1,4,4,4,5,5,5,5,3,4,5,1,3,3,2,2,1,3,3,2,4,4,3,2,3,1,1,1,2,2,1,4,1,1,4,4,5,3,3,1,4,4,4,3,4,5,3,2,5,1,5,4,3,5,5,3,2,1,5,2,1,4,5,2,1,5,2,2,4"
dtnsim.node[8].app.start = "75,88,78,83,59,17,69,69,53,60,59,80,66,74,89,62,20,78,99,10,76,83,83,6,71,23,35,80,40,43,99,48,59,49,39,15,81,45,97,42,33,27,21,100,35,67,52,61,44,80,39,5,69,61,88,65,76,51,5,52,69,46,41,37,65,7,12,66,100,61,41,32,57,37,10,87,58,44,13,54,57,39,90,94,60,19,38,2,58,100,40,32,98,29,50,79,73,30,39,79"
dtnsim.node[8].app.destinationEid = "7,7,7,7,7,7,7,7,7,7,7,7,7,7,7,7,7,7,7,7,7,7,7,7,7,7,7,7,7,7,7,7,7,7,7,7,7,7,7,7,7,9,9,9,9,9,9,9,9,9,9,9,9,9,9,9,9,9,9,9,9,9,9,9,9,9,9,9,9,9,9,9,9,9,9,9,9,9,9,9,9,9,9,9,9,9,9,9,9,9,9,9,9,9,9,9,9,9,9,9"
dtnsim.node[8].app.size = "50,500,100,50,500,500,50,500,200,100,100,500,50,200,200,50,100,100,100,500,100,500,100,50,500,200,200,50,100,100,100,200,100,100,100,50,200,100,500,50,50,500,100,200,500,50,500,200,500,100,100,500,100,200,500,200,100,500,500,500,200,50,200,200,100,500,50,50,500,50,200,200,100,50,100,100,200,50,200,200,500,100,200,100,100,100,50,50,200,100,100,500,100,100,50,500,500,500,50,200"
# Node 9 random conversational traffic
dtnsim.node[9].app.enable = true
dtnsim.node[9].app.bundlesNumber = "4,1,5,5,4,2,5,3,4,5,2,5,5,3,4,5,5,1,1,1,2,5,1,4,4,1,2,1,2,3,1,1,2,5,2,4,4,5,2,1,5,2,2,4,3,1,4,1,4,4,2,1,5,4,2,2,4,4,4,5,2,1,2,3,4,2,2,4,3,4,3,1,5,3,1,1,4,3,5,4,5,1,3,4,1,1,5,3,2,5,4,2,4,4,4,2,4,3,4,3"
dtnsim.node[9].app.start = "25,54,49,14,74,98,56,51,47,74,100,51,40,12,95,52,20,59,66,40,12,42,37,41,88,7,43,45,28,100,27,45,92,41,41,41,71,75,85,98,9,49,77,8,50,80,54,10,57,11,46,69,1,41,98,100,29,46,52,47,69,53,36,9,68,9,44,2,37,17,92,20,58,44,32,12,17,25,93,64,8,2,55,64,60,79,77,51,98,74,4,68,60,58,74,16,87,57,5,48"
dtnsim.node[9].app.destinationEid = "8,8,8,8,8,8,8,8,8,8,8,8,8,8,8,8,8,8,8,8,8,8,8,8,8,10,10,10,10,10,10,10,10,10,10,10,10,10,10,10,10,10,10,10,10,10,10,10,10,10,10,10,10,10,10,10,10,10,10,10,10,10,10,10,10,10,10,10,10,10,10,10,10,10,10,10,10,10,10,10,10,10,10,10,10,10,10,10,10,10,10,10,10,10,10,10,10,10,10,10"
dtnsim.node[9].app.size = "500,500,200,100,500,200,50,50,200,500,50,50,500,100,200,500,100,100,50,100,500,500,100,200,200,200,50,100,100,100,100,200,200,100,50,200,100,200,100,200,500,100,500,100,500,50,500,100,200,100,200,500,500,50,200,500,100,100,50,50,100,500,500,500,200,50,200,50,100,500,200,200,500,200,100,200,50,50,500,50,50,50,200,50,200,200,500,500,50,50,500,200,200,500,100,200,500,500,500,500"
# Node 10 random conversational traffic
dtnsim.node[10].app.enable = true
dtnsim.node[10].app.bundlesNumber = "1,3,4,1,1,5,4,5,5,2,3,3,1,5,2,4,5,2,3,4,2,4,1,5,4,3,4,2,1,1,4,1,2,5,3,3,4,5,4,3,5,5,1,1,3,2,2,5,4,5,3,4,4,4,2,3,4,4,1,3,4,3,2,5,2,1,1,2,4,1,1,3,1,2,4,2,2,4,3,4,3,4,5,2,4,2,2,4,3,5,2,5,1,4,1,2,2,5,4,5"
dtnsim.node[10].app.start = "9,48,53,29,54,93,50,79,80,99,11,59,86,66,12,75,100,57,57,70,54,15,69,10,49,12,43,94,47,33,24,32,98,13,57,82,83,60,99,76,76,69,80,23,94,60,12,53,44,72,34,92,77,84,66,37,95,39,34,90,30,51,19,64,4,59,55,32,37,62,39,58,27,35,43,78,87,97,46,90,16,64,21,89,3,100,54,56,80,15,13,41,24,22,91,92,11,32,45,1"
dtnsim.node[10].app.destinationEid = "9,9,9,9,9,9,9,9,9,9,9,9,9,9,9,9,9,9,9,9,9,9,9,9,9,9,9,9,9,9,9,9,9,9,9,9,9,9,9,9,9,9,9,9,9,9,9,9,11,11,11,11,11,11,11,11,11,11,11,11,11,11,11,11,11,11,11,11,11,11,11,11,11,11,11,11,11,11,11,11,11,11,11,11,11,11,11,11,11,11,11,11,11,11,11,11,11,11,11,11"
dtnsim.node[10].app.size = "200,100,50,500,500,200,100,50,200,50,100,200,500,50,100,100,200,50,200,200,50,500,100,200,500,50,200,200,500,100,100,500,50,500,500,50,200,50,50,200,50,50,200,100,50,500,200,100,500,200,200,500,200,200,500,200,100,200,200,50,50,200,500,200,50,50,500,100,200,50,100,100,500,100,100,100,500,500,200,100,100,100,100,100,200,100,200,100,100,200,50,50,200,200,500,500,100,50,50,500"
# Node 11 random conversational traffic
dtnsim.node[11].app.enable = true
dtnsim.node[11].app.bundlesNumber = "4,1,1,2,4,1,1,1,4,3,5,1,2,1,5,3,4,4,3,5,4,3,2,3,4,1,1,5,2,3,2,5,2,1,4,1,5,4,2,4,3,4,2,5,2,4,5,1,4,3,3,2,5,1,2,5,3,4,1,4,3,2,2,2,3,3,3,4,2,3,2,3,4,5,2,2,5,4,4,4,2,5,2,4,4,1,1,3,1,3,3,1,5,2,3,4,2,2,3,3"
dtnsim.node[11].app.start = "49,43,96,85,85,73,100,48,99,40,21,65,10,39,49,28,82,96,99,49,74,29,92,61,23,21,47,29,27,92,17,37,50,32,94,62,19,56,65,10,17,41,86,53,4,51,9,15,16,81,93,80,92,93,20,35,39,86,18,82,85,94,82,49,98,39,81,53,96,63,39,6,62,33,83,62,96,65,52,4,99,62,91,29,65,32,62,28,57,42,91,19,88,22,65,32,1,77,68,55"
dtnsim.node[11].app.destinationEid = "10,10,10,10,10,10,10,10,10,10,10,10,10,10,10,10,10,10,10,10,10,10,10,10,10,10,10,10,10,10,10,10,10,12,12,12,12,12,12,12,12,12,12,12,12,12,12,12,12,12,12,12,12,12,12,12,12,12,12,12,12,12,12,12,12,12,12,12,12,12,12,12,12,12,12,12,12,12,12,12,12,12,12,12,12,12,12,12,12,12,12,12,12,12,12,12,12,12,12,12"
dtnsim.node[11].app.size = "50,200,200,200,200,100,500,50,500,500,100,500,100,50,100,200,500,100,100,100,200,50,500,50,200,200,50,50,100,200,500,50,500,200,500,100,500,500,200,500,200,100,500,100,200,100,500,100,50,100,100,500,200,200,50,500,500,500,200,500,200,200,100,500,200,500,50,200,100,200,500,200,200,50,50,500,200,50,100,200,100,500,200,200,500,50,500,200,50,500,200,50,50,500,100,100,500,200,200,50"
# Node 12 random conversational traffic
dtnsim.node[12].app.enable = true
dtnsim.node[12].app.bundlesNumber = "1,4,4,1,3,2,2,4,1,4,2,1,4,1,4,1,2,1,3,3,3,5,2,1,2,1,3,3,4,3,4,1,4,1,1,1,2,2,2,1,5,3,1,1,5,2,3,2,2,5,3,3,3,4,4,4,1,3,4,4,4,2,1,2,4,2,2,1,2,5,3,5,1,4,5,3,5,5,5,4,3,1,2,1,5,4,5,2,1,3,5,2,4,1,3,4,1,3,1,4"
dtnsim.node[12].app.start = "38,27,63,70,49,87,56,8,56,25,89,97,83,93,94,47,28,84,92,100,90,99,38,70,98,70,9,100,72,95,31,68,37,29,64,50,96,20,26,74,33,3,71,63,86,27,3,99,58,49,21,39,41,66,17,45,84,40,57,15,89,38,63,3,16,66,59,79,31,33,41,33,10,67,36,82,3,55,53,3,16,91,83,14,20,60,32,76,67,37,2,23,35,52,48,85,45,28,75,95"
dtnsim.node[12].app.destinationEid = "11,11,11,11,11,11,11,11,11,11,11,11,11,11,11,11,11,11,11,11,11,11,11,11,11,11,11,11,11,11,11,11,11,11,11,11,11,11,11,11,11,11,11,11,13,13,13,13,13,13,13,13,13,13,13,13,13,13,13,13,13,13,13,13,13,13,13,13,13,13,13,13,13,13,13,13,13,13,13,13,13,13,13,13,13,13,13,13,13,13,13,13,13,13,13,13,13,13,13,13"
dtnsim.node[12].app.size = "50,200,500,200,50,50,200,200,50,50,500,500,200,50,500,200,500,200,200,500,500,100,500,50,500,500,500,500,50,50,100,200,500,100,500,100,100,200,500,100,500,100,500,100,50,100,500,500,500,50,200,500,200,100,50,200,50,200,50,100,50,200,200,100,100,200,200,100,500,50,50,50,100,50,500,100,50,50,100,50,50,500,500,50,50,500,500,100,500,50,100,50,50,200,50,50,200,50,200,500"
# Node 13 random conversational traffic
dtnsim.node[13].app.enable = true
dtnsim.node[13].app.bundlesNumber = "2,3,5,1,2,2,5,5,1,1,4,3,1,1,2,3,4,3,5,5,4,5,3,2,4,3,1,1,1,1,4,4,5,4,4,3,5,5,2,2,4,4,3,5,4,3,1,1,1,2,3,4,2,5,2,4,5,2,5,3,4,4,5,1,1,3,1,4,5,2,1,5,4,1,3,5,3,3,2,1,1,2,5,2,5,5,5,4,1,2,5,3,3,3,5,5,2,1,4,5"
dtnsim.node[13].app.start = "96,5,28,45,51,67,22,87,48,64,21,94,40,73,13,76,37,43,16,70,38,90,6,94,69,33,78,75,44,54,53,99,87,53,80,47,51,47,80,45,49,100,86,65,77,79,7,47,10,25,81,48,87,80,37,76,40,9,75,44,42,29,74,71,3,11,12,25,66,31,81,79,6,80,56,53,2,64,38,45,12,19,50,30,40,76,45,89,45,78,49,49,43,85,74,49,59,26,90,62"
dtnsim.node[13].app.destinationEid = "12,12,12,12,12,12,12,12,12,12,12,12,12,12,12,12,12,12,12,12,12,12,12,12,12,12,12,12,12,12,12,12,14,14,14,14,14,14,14,14,14,14,14,14,14,14,14,14,14,14,14,14,14,14,14,14,14,14,14,14,14,14,14,14,14,14,14,14,14,14,14,14,14,14,14,14,14,14,14,14,14,14,14,14,14,14,14,14,14,14,14,14,14,14,14,14,14,14,14,14"
dtnsim.node[13].app.size = "50,500,500,100,500,100,500,500,100,500,50,100,200,500,200,100,50,100,200,50,500,100,100,500,200,100,50,100,50,100,100,200,100,100,200,100,100,50,50,100,100,200,50,100,200,500,200,200,200,200,200,200,100,50,200,100,100,500,200,500,500,200,100,200,200,500,50,50,100,50,500,50,200,500,200,500,500,50,200,500,200,200,500,50,200,100,500,50,50,50,100,200,500,50,200,500,500,200,500,500"
# Node 14 random conversational traffic
dtnsim.node[14].app.enable = true
dtnsim.node[14].app.bundlesNumber = "3,3,1,4,4,5,4,3,4,2,3,1,4,5,4,1,5,4,3,5,5,1,2,1,3,5,3,5,3,1,3,1,4,5,2,1,3,4,5,5,3,2,5,5,4,3,3,3,5,4,5,3,3,3,4,5,4,2,1,5,3,4,1,1,5,5,1,4,2,4,4,4,2,3,1,2,5,5,1,2,4,2,1,4,1,4,2,3,5,2,5,5,1,3,5,4,1,2,2,5"
dtnsim.node[14].app.start = "93,56,48,53,53,48,50,96,68,83,9,52,19,83,51,93,43,14,77,46,38,76,16,41,89,82,57,61,7,71,40,53,18,54,82,94,84,51,49,80,60,27,85,5,63,79,40,95,9,10,49,51,29,92,88,18,61,50,71,75,56,41,69,47,71,80,20,10,40,90,60,78,73,1,56,77,81,5,81,20,60,52,78,24,47,84,41,1,47,53,57,60,94,57,24,6,96,17,54,93"
dtnsim.node[14].app.destinationEid = "13,13,13,13,13,13,13,13,13,13,13,13,13,13,13,13,13,13,13,13,13,13,13,13,13,13,13,13,13,13,13,13,13,13,13,13,13,13,13,13,13,13,15,15,15,15,15,15,15,15,15,15,15,15,15,15,15,15,15,15,15,15,15,15,15,15,15,15,15,15,15,15,15,15,15,15,15,15,15,15,15,15,15,15,15,15,15,15,15,15,15,15,15,15,15,15,15,15,15,15"
dtnsim.node[14].app.size = "50,100,500,500,100,500,200,500,100,100,500,200,50,50,200,50,200,100,50,50,200,100,50,100,100,500,200,50,500,100,100,500,100,50,100,100,500,100,100,100,500,200,50,500,500,100,50,200,100,500,500,500,100,100,500,200,100,500,500,100,50,100,50,200,50,200,200,200,100,200,500,500,50,100,100,200,200,500,50,200,100,50,50,500,200,50,200,500,500,50,500,500,500,100,50,200,50,100,50,500"
# Node 15 random conversational traffic
dtnsim.node[15].app.enable = true
dtnsim.node[15].app.bundlesNumber = "2,1,1,4,1,4,3,4,2,4,3,1,2,4,2,3,3,3,4,3,4,2,1,5,4,1,2,5,5,3,1,3,1,3,5,5,3,3,5,2,1,2,5,5,1,2,1,2,3,4,3,2,4,4,5,4,3,5,5,4,2,2,1,2,1,4,3,4,2,3,2,2,2,4,5,1,5,2,2,3,5,5,1,5,4,2,5,1,3,3,3,4,3,3,1,3,5,4,4,3"
dtnsim.node[15].app.start = "86,10,98,12,18,56,97,20,71,80,83,66,44,75,28,13,95,68,83,58,87,24,62,86,25,55,42,61,59,63,98,60,9,100,25,16,99,35,49,78,19,66,98,15,38,71,37,17,11,95,4,50,54,26,92,75,1,3,49,54,72,74,16,74,54,46,29,90,70,69,80,98,56,23,12,82,85,14,83,25,38,77,19,56,39,82,40,59,99,63,46,33,8,52,5,26,22,14,67,71"
dtnsim.node[15].app.destinationEid = "14,14,14,14,14,14,14,14,14,14,14,14,14,14,14,14,14,14,14,14,14,14,14,14,14,14,14,14,14,14,14,14,14,14,14,16,16,16,16,16,16,16,16,16,16,16,16,16,16,16,16,16,16,16,16,16,16,16,16,16,16,16,16,16,16,16,16,16,16,16,16,16,16,16,16,16,16,16,16,16,16,16,16,16,16,16,16,16,16,16,16,16,16,16,16,16,16,16,16,16"
dtnsim.node[15].app.size = "50,100,100,100,500,100,50,200,500,200,500,500,100,100,500,100,100,100,200,500,50,200,100,500,500,200,50,50,200,100,500,100,50,100,200,200,50,100,200,50,100,200,200,200,100,100,500,50,50,200,200,100,500,500,50,100,50,50,50,50,500,100,200,100,200,200,50,50,100,500,100,500,500,100,200,50,100,100,500,100,200,200,100,200,50,50,100,50,50,500,50,50,100,500,100,500,50,500,50,50"
# Node 16 random conversational traffic
dtnsim.node[16].app.enable = true
dtnsim.node[16].app.bundlesNumber = "5,2,3,2,1,4,4,5,4,1,2,4,4,1,2,3,3,2,5,1,2,5,5,1,5,5,4,2,1,1,4,4,3,2,2,2,1,5,4,5,2,3,4,5,2,5,5,4,5,4,4,4,3,5,5,2,1,5,3,1,1,2,5,5,4,4,4,1,5,3,4,1,1,4,5,2,4,5,3,2,3,4,3,4,2,3,2,4,3,1,5,2,1,2,5,4,3,1,1,1"
dtnsim.node[16].app.start = "21,100,39,80,20,76,17,75,40,23,96,12,58,32,96,11,13,77,80,31,74,88,63,27,20,92,86,15,33,45,86,26,58,69,42,61,33,77,38,17,51,58,30,60,10,95,15,23,8,24,100,70,32,60,12,49,48,18,83,53,53,95,9,18,13,70,19,16,64,30,84,79,58,54,40,50,51,37,70,47,17,55,17,49,10,52,29,21,67,5,81,81,27,32,87,20,16,97,4,1"
dtnsim.node[16].app.destinationEid = "15,15,15,15,15,15,15,15,15,15,15,15,15,15,15,15,15,15,15,15,15,15,15,15,15,15,15,15,15,15,15,15,15,15,15,15,15,15,17,17,17,17,17,17,17,17,17,17,17,17,17,17,17,17,17,17,17,17,17,17,17,17,17,17,17,17,17,17,17,17,17,17,17,17,17,17,17,17,17,17,17,17,17,17,17,17,17,17,17,17,17,17,17,17,17,17,17,17,17,17"
dtnsim.node[16].app.size = "200,200,50,50,50,500,200,200,50,500,200,50,200,200,500,200,100,100,100,500,200,200,100,50,50,500,100,50,50,200,200,100,200,50,100,100,200,100,100,200,50,500,200,500,200,100,200,200,200,100,50,50,100,100,50,100,100,200,500,100,50,500,50,500,200,200,200,50,200,50,100,500,50,200,500,50,100,100,200,200,100,200,200,50,200,200,50,200,500,50,200,500,50,500,50,100,200,200,200,50"
# Node 17 random conversational traffic
dtnsim.node[17].app.enable = true
dtnsim.node[17].app.bundlesNumber = "5,5,5,1,5,2,5,3,2,1,4,1,2,1,3,1,3,3,2,5,3,1,3,1,5,2,1,5,1,4,4,2,2,1,4,2,5,2,5,5,2,4,2,1,2,1,2,3,2,2,4,3,2,3,1,1,4,2,4,3,2,5,5,1,4,5,4,4,5,5,5,2,1,1,2,5,2,2,3,5,3,3,4,4,1,4,3,1,3,2,2,1,5,4,3,1,5,5,5,5"
dtnsim.node[17].app.start = "41,67,63,97,13,100,37,68,15,50,25,91,55,58,14,16,26,74,40,65,59,45,53,54,77,54,23,27,52,13,37,69,9,35,23,17,100,12,99,11,81,20,15,35,28,9,69,35,19,2,63,18,17,37,86,77,72,28,72,3,29,29,18,1,1,23,6,100,11,64,47,43,67,4,80,36,33,71,59,61,93,74,30,64,13,70,64,37,69,14,100,35,11,90,15,81,79,76,23,92"
dtnsim.node[17].app.destinationEid = "16,16,16,16,16,16,16,16,16,16,16,16,16,16,16,16,16,16,16,16,16,16,16,16,16,16,16,16,16,16,16,16,16,16,16,16,16,16,18,18,18,18,18,18,18,18,18,18,18,18,18,18,18,18,18,18,18,18,18,18,18,18,18,18,18,18,18,18,18,18,18,18,18,18,18,18,18,18,18,18,18,18,18,18,18,18,18,18,18,18,18,18,18,18,18,18,18,18,18,18"
dtnsim.node[17].app.size = "500,100,500,50,500,200,200,100,100,200,100,50,100,100,500,200,50,200,200,100,100,500,50,500,200,50,50,50,50,200,500,500,50,200,100,200,100,500,100,100,50,50,500,500,200,50,100,500,50,500,200,100,500,200,200,200,50,500,200,50,100,500,200,100,200,500,100,50,50,100,200,100,100,50,500,200,100,50,100,50,200,200,100,50,200,200,50,500,100,50,500,50,500,200,50,500,100,50,50,500"
# Node 18 random conversational traffic
dtnsim.node[18].app.enable = true
dtnsim.node[18].app.bundlesNumber = "1,1,2,1,1,2,2,2,4,2,2,4,2,5,2,1,2,4,4,3,2,2,2,2,5,3,3,4,5,1,2,3,3,5,1,4,5,5,4,1,1,3,4,1,2,4,2,4,4,2,3,4,2,4,3,4,4,4,2,2,5,3,4,5,3,2,2,3,3,2,2,1,1,2,3,5,3,5,4,3,3,2,4,5,3,4,1,4,2,3,3,4,3,1,1,5,3,4,4,2"
dtnsim.node[18].app.start = "100,17,90,36,13,73,39,68,22,38,94,83,5,34,32,23,9,11,26,11,100,14,72,49,69,75,31,68,21,78,39,74,18,91,85,25,93,5,13,4,67,42,45,67,31,12,80,18,70,94,33,93,97,62,71,12,42,69,53,39,10,86,16,98,74,70,17,37,71,38,65,77,11,66,5,64,12,40,79,51,79,95,4,48,46,42,45,52,38,98,81,27,6,6,16,49,49,15,41,66"
dtnsim.node[18].app.destinationEid = "17,17,17,17,17,17,17,17,17,17,17,17,17,17,17,17,17,17,17,17,17,17,17,17,17,17,17,17,17,17,17,17,17,17,17,17,17,19,19,19,19,19,19,19,19,19,19,19,19,19,19,19,19,19,19,19,19,19,19,19,19,19,19,19,19,19,19,19,19,19,19,19,19,19,19,19,19,19,19,19,19,19,19,19,19,19,19,19,19,19,19,19,19,19,19,19,19,19,19,19"
dtnsim.node[18].app.size = "100,50,200,500,500,200,500,50,500,200,50,200,50,50,50,200,500,500,100,100,50,100,50,100,200,200,500,200,100,100,50,100,500,100,200,200,100,100,500,100,100,200,500,500,50,100,500,200,500,200,500,100,200,50,50,500,500,500,50,500,100,100,500,100,200,50,100,100,500,50,500,100,500,500,50,200,500,50,100,200,200,500,100,100,200,500,50,100,50,50,500,100,50,200,500,500,500,200,50,50"
# Node 19 random conversational traffic
dtnsim.node[19].app.enable = true
dtnsim.node[19].app.bundlesNumber = "2,4,2,2,1,4,2,2,5,1,5,5,2,4,5,3,5,4,1,4,3,2,3,2,2,5,5,5,4,4,5,5,1,2,1,5,2,1,5,4,2,3,4,4,4,1,2,3,4,3,2,2,4,1,5,1,4,5,2,4,5,3,4,2,5,2,4,4,4,5,2,3,1,1,5,2,5,3,2,3,1,1,3,2,1,2,1,3,4,2,1,1,1,2,2,1,5,1,2,2"
dtnsim.node[19].app.start = "21,6,73,47,68,32,73,95,97,98,64,75,77,45,87,84,47,72,71,78,69,9,49,88,84,7,58,53,47,44,7,22,58,51,92,98,82,54,35,61,82,90,8,93,11,81,63,15,55,43,100,18,35,59,51,13,42,4,91,19,32,5,59,21,79,28,23,52,59,55,12,30,60,52,59,20,92,98,53,10,24,11,8,45,98,78,84,55,100,98,58,17,13,11,75,18,74,14,43,8"
dtnsim.node[19].app.destinationEid = "18,18,18,18,18,18,18,18,18,18,18,18,18,18,18,18,18,18,18,18,18,18,18,18,18,18,18,18,18,18,18,18,18,18,20,20,20,20,20,20,20,20,20,20,20,20,20,20,20,20,20,20,20,20,20,20,20,20,20,20,20,20,20,20,20,20,20,20,20,20,20,20,20,20,20,20,20,20,20,20,20,20,20,20,20,20,20,20,20,20,20,20,20,20,20,20,20,20,20,20"
dtnsim.node[19].app.size = "100,100,500,100,500,50,100,500,50,200,50,500,100,200,50,100,500,50,500,200,100,200,100,200,500,100,50,50,50,500,100,500,50,200,100,200,200,200,100,200,50,50,500,500,50,500,50,50,500,200,200,50,100,500,200,50,500,200,500,50,100,200,100,200,200,200,500,50,200,200,100,100,100,100,50,200,50,50,50,500,50,200,50,200,100,500,500,200,100,500,500,500,500,50,500,100,100,100,200,100"
# Node 20 random conversational traffic
dtnsim.node[20].app.enable = true
dtnsim.node[20].app.bundlesNumber = "1,5,5,5,5,3,5,4,3,5,4,2,5,1,3,3,5,4,3,1,2,4,2,5,1,5,5,5,1,2,1,1,3,4,1,2,4,4,3,5,3,1,4,2,4,2,4,1,2,5,4,3,4,2,5,4,3,4,4,5,3,1,5,1,1,4,1,3,4,1,3,2,5,4,2,4,4,5,5,1,4,3,1,3,5,4,5,5,5,3,1,1,2,1,2,1,4,1,2,5"
dtnsim.node[20].app.start = "93,84,55,62,99,95,12,65,44,100,24,43,92,24,42,12,69,29,24,60,64,15,30,99,32,13,51,90,100,99,61,18,83,45,3,69,88,85,55,17,10,13,94,72,42,28,58,17,99,4,50,20,97,55,100,61,12,77,45,100,69,92,47,14,56,73,27,83,44,77,69,69,99,38,34,96,92,81,18,33,96,5,6,85,18,46,23,45,75,42,26,42,25,22,94,95,9,59,7,56"
dtnsim.node[20].app.destinationEid = "19,19,19,19,19,19,19,19,19,19,19,19,19,19,19,19,19,19,19,19,19,19,19,19,19,19,19,19,19,19,19,19,19,19,21,21,21,21,21,21,21,21,21,21,21,21,21,21,21,21,21,21,21,21,21,21,21,21,21,21,21,21,21,21,21,21,21,21,21,21,21,21,21,21,21,21,21,21,21,21,21,21,21,21,21,21,21,21,21,21,21,21,21,21,21,21,21,21,21,21"
dtnsim.node[20].app.size = "50,50,200,100,500,200,100,500,50,200,50,200,200,200,100,100,500,200,500,500,200,100,200,500,200,50,50,50,500,200,100,500,50,200,500,200,500,200,500,200,500,100,200,50,50,100,200,100,100,50,200,500,200,50,50,200,50,50,200,200,50,50,200,500,50,200,200,100,100,50,500,100,200,500,100,200,200,50,500,100,500,50,100,500,200,500,50,100,100,500,100,200,500,50,500,100,100,100,100,50"
# Node 21 random conversational traffic
dtnsim.node[21].app.enable = true
dtnsim.node[21].app.bundlesNumber = "2,2,1,2,5,1,2,1,4,2,3,5,3,1,3,5,4,5,3,4,3,1,5,2,1,2,2,3,2,3,3,4,2,5,1,5,4,4,3,2,2,4,4,5,3,1,5,2,2,3,3,3,1,2,3,5,1,5,1,2,3,2,2,4,2,2,5,4,5,4,2,5,2,1,1,4,1,1,1,4,5,1,3,5,3,2,5,2,5,4,3,1,4,3,2,4,2,1,5,1"
dtnsim.node[21].app.start = "7,74,60,23,11,99,50,35,18,24,99,56,100,14,78,100,49,20,82,28,92,46,87,73,100,41,98,89,37,99,8,9,87,24,55,82,36,46,95,98,14,67,13,27,84,32,86,28,80,62,58,1,81,28,42,91,61,31,100,80,11,20,10,54,76,14,61,53,10,52,60,84,69,39,33,98,47,41,95,43,32,3,87,20,63,71,36,2,31,71,76,16,56,52,58,81,51,53,63,27"
dtnsim.node[21].app.destinationEid = "20,20,20,20,20,20,20,20,20,20,20,20,20,20,20,20,20,20,20,20,20,20,20,20,20,20,20,20,20,20,20,20,20,20,20,20,20,20,20,20,20,20,20,22,22,22,22,22,22,22,22,22,22,22,22,22,22,22,22,22,22,22,22,22,22,22,22,22,22,22,22,22,22,22,22,22,22,22,22,22,22,22,22,22,22,22,22,22,22,22,22,22,22,22,22,22,22,22,22,22"
dtnsim.node[21].app.size = "100,500,100,50,200,200,200,100,100,200,500,50,100,50,500,50,100,500,500,200,50,200,100,100,200,50,100,50,200,500,100,50,100,100,200,100,100,100,200,200,100,500,50,200,100,200,50,100,200,500,200,50,200,100,200,500,50,200,500,500,500,100,50,100,200,100,500,500,500,50,200,50,50,500,500,100,500,200,100,200,100,50,50,200,50,200,500,500,50,200,100,50,500,50,100,100,100,100,200,200"
# Node 22 random conversational traffic
dtnsim.node[22].app.enable = true
dtnsim.node[22].app.bundlesNumber = "3,5,1,4,5,5,3,5,5,3,4,5,2,4,2,5,1,5,5,4,4,5,2,3,5,2,1,3,2,5,2,4,2,2,3,3,5,5,1,1,3,3,2,4,1,1,4,3,4,1,4,2,3,4,2,5,1,5,4,3,1,1,5,5,1,3,1,4,3,1,4,4,4,1,3,1,4,2,5,5,4,4,1,5,5,1,5,5,3,2,5,4,3,3,2,4,3,1,2,4"
dtnsim.node[22].app.start = "86,38,87,87,64,60,3,89,52,63,33,18,56,17,60,65,90,36,100,51,44,99,50,37,10,95,24,69,42,32,78,80,59,59,61,62,74,78,5,97,34,56,10,99,59,86,21,75,10,63,37,59,26,77,82,22,75,31,70,13,71,77,48,40,32,26,45,64,43,94,71,31,54,90,95,12,24,18,67,36,35,64,99,97,74,25,83,75,67,37,73,78,63,1,25,31,34,90,17,30"
dtnsim.node[22].app.destinationEid = "21,21,21,21,21,21,21,21,21,21,21,21,21,21,21,21,21,21,21,21,21,21,21,21,21,21,21,21,21,21,21,21,21,21,21,21,23,23,23,23,23,23,23,23,23,23,23,23,23,23,23,23,23,23,23,23,23,23,23,23,23,23,23,23,23,23,23,23,23,23,23,23,23,23,23,23,23,23,23,23,23,23,23,23,23,23,23,23,23,23,23,23,23,23,23,23,23,23,23,23"