[General]
network = src.dtnsim										
repeat = 1
allow-object-stealing-on-deletion = true

# Simulation end time
sim-time-limit = 84600s

# Nodes quantity (identifiers (EiDs) matches their index, EiD=0 is ignored)			
dtnsim.nodesNumber = 120
dtnsim.node[*].icon = "satellite"

# Nodes's failure rates
dtnsim.node[*].fault.enable = true
dtnsim.node[*].fault.meanTTF = 90s
dtnsim.node[*].fault.meanTTR = 10s

# Mobility
dtnsim.node[*].hasMobility = true
dtnsim.node[*].norad.satIndex = parentIndex()
dtnsim.node[*].norad.satName = "sat"
**.updateInterval = 20s
**.numOfSats = 120
**.satPerPlane = 10
**.altitude = 540
**.planes = 12
**.phaseOffset = 7

dtnsim.node[*].dtn.routing = "antop"
dtnsim.node[*].dtn.printRoutingDebug = true

# --- Random Traffic Configuration ---
# Node 1 random conversational traffic
dtnsim.node[1].app.enable = true
dtnsim.node[1].app.bundlesNumber = "1,5,5,5,1,3,1,5,5,4,2,2,3,5,5,3,5,4,5,1,3,4,1,5,2,2,5,5,1,5,1,3,2,1,3,1,2,1,3,3,4,2,5,3,5,4,5,4,4,4,3,1,1,2,1,3,3,1,5,5,5,4,1,3,1,2,5,5,2,4,3,1,5,3,2,4,2,2,1,4,3,3,3,3,3,3,3,1,2,1,4,5,5,2,2,1,1,1,5,4"
dtnsim.node[1].app.start = "97,4,100,22,75,28,65,74,78,20,58,43,56,62,98,96,55,25,57,8,47,58,56,70,100,64,52,81,68,28,6,13,33,11,61,78,18,43,61,4,21,68,100,52,6,88,7,77,72,28,41,25,45,43,51,78,43,84,3,78,19,37,30,14,99,17,63,75,15,17,63,12,36,33,12,24,65,48,77,71,13,95,4,33,3,78,88,70,78,96,56,79,84,2,6,97,74,41,88,9"
dtnsim.node[1].app.destinationEid = "2,2,2,2,2,2,2,2,2,2,2,2,2,2,2,2,2,2,2,2,2,2,2,2,2,2,2,2,2,2,2,2,2,2,2,2,2,2,2,2,2,2,2,2,2,2,2,2,2,2,2,2,2,2,2,2,2,2,2,2,2,2,2,2,2,2,2,2,2,2,2,2,2,2,2,2,2,2,2,2,2,2,2,2,2,2,2,2,2,2,2,2,2,2,2,2,2,2,2,2"
dtnsim.node[1].app.size = "100,100,50,100,100,50,50,100,500,500,200,100,50,500,50,500,50,100,100,100,50,100,50,100,50,100,500,50,500,500,500,200,500,100,100,100,100,50,500,500,100,50,500,500,100,50,100,200,500,200,500,50,100,500,200,200,500,500,100,100,200,50,200,50,200,500,50,100,50,100,200,100,100,50,200,200,50,50,200,50,200,200,100,100,50,200,50,500,100,50,100,100,500,500,50,100,100,50,100,500"
# Node 2 random conversational traffic
dtnsim.node[2].app.enable = true
dtnsim.node[2].app.bundlesNumber = "4,1,4,3,4,3,2,5,3,3,4,1,3,1,3,1,2,5,2,1,3,2,1,4,2,3,5,3,5,4,4,2,5,1,5,4,4,3,3,2,2,5,1,5,1,5,3,1,1,5,2,1,5,5,5,4,1,4,3,4,4,3,5,2,5,4,2,3,4,5,1,1,2,4,1,3,1,5,3,4,2,3,5,2,5,3,3,2,1,1,5,4,2,1,3,3,2,4,1,1"
dtnsim.node[2].app.start = "10,100,66,82,27,65,48,65,72,99,32,48,60,78,100,73,89,72,33,17,35,81,20,64,14,60,7,89,76,32,32,53,9,23,46,18,78,17,40,37,20,30,71,73,14,41,79,96,78,84,97,85,90,10,11,100,98,74,63,11,98,48,56,71,75,39,70,31,21,6,100,52,27,54,35,36,78,93,18,6,82,31,17,89,6,98,69,66,25,79,34,52,73,88,86,72,19,5,20,88"
dtnsim.node[2].app.destinationEid = "1,1,1,1,1,1,1,1,1,1,1,1,1,1,1,1,1,1,1,1,1,1,1,1,1,1,1,1,1,1,1,1,1,1,1,1,1,1,1,1,1,1,1,1,1,1,1,1,1,1,1,1,1,1,1,1,1,3,3,3,3,3,3,3,3,3,3,3,3,3,3,3,3,3,3,3,3,3,3,3,3,3,3,3,3,3,3,3,3,3,3,3,3,3,3,3,3,3,3,3"
dtnsim.node[2].app.size = "100,200,100,500,50,100,500,200,200,100,200,50,200,50,100,500,500,100,50,500,200,200,50,100,200,100,200,500,50,100,200,500,500,50,200,200,500,100,200,100,100,500,100,100,50,500,100,50,500,200,100,500,100,100,100,200,100,50,100,500,100,500,500,100,50,100,100,500,50,500,200,100,50,50,100,500,500,50,500,100,500,200,100,200,500,100,50,200,50,200,500,500,50,200,100,200,500,100,500,50"
# Node 3 random conversational traffic
dtnsim.node[3].app.enable = true
dtnsim.node[3].app.bundlesNumber = "3,1,5,2,4,4,3,4,4,4,5,4,4,3,3,3,3,5,3,2,5,2,2,4,2,3,1,1,2,5,5,4,5,4,1,5,4,3,3,1,5,5,1,2,5,5,1,2,2,3,4,3,4,2,2,1,4,1,4,4,2,2,3,3,4,3,2,5,5,4,2,3,1,3,1,4,2,4,2,4,2,2,1,4,2,4,5,2,3,2,2,1,1,5,5,2,4,1,1,3"
dtnsim.node[3].app.start = "81,100,60,79,77,40,27,9,100,56,44,88,98,21,7,25,90,9,100,73,88,57,93,90,25,22,93,30,55,97,4,50,74,57,91,68,18,91,97,84,77,98,9,83,69,97,10,9,100,82,78,28,43,60,26,27,62,40,82,77,40,10,62,35,9,7,90,56,69,72,74,97,26,77,91,80,74,34,24,30,22,26,81,81,32,3,6,50,64,84,56,51,63,98,80,4,48,90,5,45"
dtnsim.node[3].app.destinationEid = "2,2,2,2,2,2,2,2,2,2,2,2,2,2,2,2,2,2,2,2,2,2,2,2,2,2,2,4,4,4,4,4,4,4,4,4,4,4,4,4,4,4,4,4,4,4,4,4,4,4,4,4,4,4,4,4,4,4,4,4,4,4,4,4,4,4,4,4,4,4,4,4,4,4,4,4,4,4,4,4,4,4,4,4,4,4,4,4,4,4,4,4,4,4,4,4,4,4,4,4"
dtnsim.node[3].app.size = "200,50,200,100,200,200,100,200,100,200,100,100,100,100,500,50,50,200,200,200,100,500,500,50,200,200,100,500,200,100,200,50,50,50,200,50,200,100,100,500,100,500,50,100,500,200,200,50,100,200,200,50,500,200,100,500,200,100,500,200,50,50,200,200,50,50,100,500,100,100,50,100,100,100,200,200,500,500,50,50,200,50,500,200,200,50,200,500,200,100,100,100,200,50,200,500,200,50,100,500"
# Node 4 random conversational traffic
dtnsim.node[4].app.enable = true
dtnsim.node[4].app.bundlesNumber = "1,3,3,3,4,4,5,4,4,4,4,4,5,4,3,3,5,5,2,5,4,3,1,3,2,4,5,5,5,4,1,1,2,1,1,4,5,5,1,1,3,5,1,2,1,4,3,4,5,3,2,4,3,3,3,4,2,2,1,4,5,3,1,4,5,4,4,3,3,4,2,1,4,4,3,2,4,1,4,1,5,4,2,3,1,1,5,3,1,2,4,2,3,1,2,4,3,2,5,1"
dtnsim.node[4].app.start = "35,64,99,75,62,99,94,86,12,89,98,18,16,100,87,30,44,66,84,86,72,43,18,15,99,63,75,99,87,93,87,82,29,35,35,12,13,52,73,64,61,64,99,11,50,10,52,65,36,85,60,41,31,83,1,67,15,25,88,55,5,68,38,15,63,38,8,29,90,76,46,18,57,13,89,46,92,72,87,74,78,29,2,93,59,3,15,86,51,16,5,12,29,24,89,42,8,90,75,72"
dtnsim.node[4].app.destinationEid = "3,3,3,3,3,3,3,3,3,3,3,3,3,3,3,3,3,3,3,3,3,3,3,3,3,3,3,3,3,3,3,3,3,3,3,3,3,3,3,3,3,3,3,3,3,3,3,5,5,5,5,5,5,5,5,5,5,5,5,5,5,5,5,5,5,5,5,5,5,5,5,5,5,5,5,5,5,5,5,5,5,5,5,5,5,5,5,5,5,5,5,5,5,5,5,5,5,5,5,5"
dtnsim.node[4].app.size = "50,200,50,200,500,100,100,500,100,500,500,100,500,500,200,100,100,200,200,500,50,50,500,500,100,200,100,50,50,50,100,500,200,500,100,100,200,50,100,100,100,200,500,50,500,200,50,500,50,500,200,500,100,500,100,200,200,200,500,50,100,50,50,200,200,200,200,500,200,50,500,50,100,200,50,200,500,100,500,100,500,50,50,200,100,100,100,200,500,100,500,50,500,200,500,500,100,200,200,200"
# Node 5 random conversational traffic
dtnsim.node[5].app.enable = true
dtnsim.node[5].app.bundlesNumber = "1,5,4,3,5,3,3,2,5,1,1,4,5,2,3,2,3,5,2,4,3,5,1,4,4,3,4,2,3,3,5,2,2,3,3,4,1,4,3,4,5,3,3,1,4,3,1,5,4,4,5,5,2,1,5,4,4,4,4,4,5,4,1,4,1,5,5,2,1,2,3,5,4,4,1,4,1,3,4,4,3,2,2,5,3,3,5,5,4,5,3,4,3,3,4,3,1,3,5,3"
dtnsim.node[5].app.start = "39,49,33,87,2,18,27,95,8,76,41,40,10,32,98,67,96,95,79,96,83,88,9,96,7,20,91,55,17,18,36,92,16,79,81,9,72,5,37,13,45,25,43,66,60,9,63,42,4,2,35,63,43,14,99,94,57,4,95,53,4,69,7,20,61,31,91,50,15,67,11,55,69,48,64,93,31,13,21,18,24,46,17,89,46,38,71,13,67,16,63,6,16,62,39,67,42,78,6,22"
dtnsim.node[5].app.destinationEid = "4,4,4,4,4,4,4,4,4,4,4,4,4,4,4,4,4,4,4,4,4,4,4,4,4,4,4,4,4,4,4,4,4,4,6,6,6,6,6,6,6,6,6,6,6,6,6,6,6,6,6,6,6,6,6,6,6,6,6,6,6,6,6,6,6,6,6,6,6,6,6,6,6,6,6,6,6,6,6,6,6,6,6,6,6,6,6,6,6,6,6,6,6,6,6,6,6,6,6,6"
dtnsim.node[5].app.size = "500,500,100,50,50,100,200,200,500,50,500,500,100,200,100,500,50,100,500,200,100,200,200,200,500,50,50,50,200,100,100,50,500,50,200,200,200,500,50,500,100,500,200,200,100,200,50,100,100,500,200,500,50,50,100,50,500,200,500,100,100,100,500,500,50,100,500,200,100,500,500,100,200,500,500,500,50,500,50,200,50,200,100,500,100,100,500,50,50,500,500,50,100,500,50,500,100,100,200,50"
# Node 6 random conversational traffic
dtnsim.node[6].app.enable = true
dtnsim.node[6].app.bundlesNumber = "3,4,1,3,2,3,5,5,1,3,3,5,3,5,2,3,1,5,5,4,4,1,4,4,3,4,1,3,5,2,5,4,1,3,1,1,3,2,1,5,2,2,5,4,1,1,4,1,2,4,2,1,2,4,3,2,1,2,4,3,2,1,4,2,1,2,2,4,1,3,4,2,5,3,4,3,2,4,5,4,1,1,1,3,5,1,5,2,1,1,2,2,4,4,1,4,5,3,2,2"
dtnsim.node[6].app.start = "16,76,10,32,47,65,10,73,45,8,44,64,100,98,58,8,97,7,75,17,39,98,71,15,61,73,52,70,95,37,22,27,33,50,24,49,40,77,72,23,69,12,72,42,48,83,27,58,54,16,63,84,43,11,44,86,40,86,15,51,9,8,88,17,59,28,95,37,100,97,89,61,72,39,89,28,75,26,2,62,75,78,67,73,89,45,17,24,59,71,15,3,35,6,62,81,35,88,77,29"
dtnsim.node[6].app.destinationEid = "5,5,5,5,5,5,5,5,5,5,5,5,5,5,5,5,5,5,5,5,5,5,5,5,5,5,5,5,5,5,5,5,5,5,5,5,5,5,5,5,5,5,5,5,5,5,5,7,7,7,7,7,7,7,7,7,7,7,7,7,7,7,7,7,7,7,7,7,7,7,7,7,7,7,7,7,7,7,7,7,7,7,7,7,7,7,7,7,7,7,7,7,7,7,7,7,7,7,7,7"
dtnsim.node[6].app.size = "50,500,50,50,500,200,50,100,100,50,50,50,500,100,500,200,50,500,500,200,500,500,50,50,50,500,100,100,100,100,500,100,50,200,500,50,500,200,100,200,50,200,50,50,50,100,50,50,200,50,100,100,100,200,50,50,100,50,50,100,100,200,100,500,100,500,50,500,50,500,100,100,500,50,500,50,500,100,50,500,50,200,500,50,50,200,100,200,200,100,500,100,500,50,50,100,500,200,50,50"
# Node 7 random conversational traffic
dtnsim.node[7].app.enable = true
dtnsim.node[7].app.bundlesNumber = "2,2,3,5,5,3,2,5,2,3,1,2,5,5,2,3,5,2,1,5,4,3,4,1,5,2,1,4,5,5,4,5,3,1,1,2,2,3,2,2,3,4,4,1,1,3,1,5,5,4,5,2,2,3,4,2,3,2,5,2,3,5,3,4,1,2,5,3,4,1,3,1,5,5,3,3,5,5,3,4,3,4,5,3,1,1,1,4,4,3,1,3,4,4,5,4,3,1,2,2"
dtnsim.node[7].app.start = "65,23,86,45,19,50,17,17,16,98,66,44,99,96,48,77,79,83,78,22,62,24,9,66,91,86,56,14,44,78,15,25,58,92,67,88,93,40,45,27,53,51,32,81,83,60,70,92,4,69,6,42,65,94,7,23,68,66,45,12,88,9,57,71,45,51,36,43,79,92,93,50,91,23,15,1,5,96,87,51,86,21,59,56,100,40,15,13,67,14,10,84,14,24,96,62,24,20,19,76"
dtnsim.node[7].app.destinationEid = "6,6,6,6,6,6,6,6,6,6,6,6,6,6,6,6,6,6,6,6,6,6,6,6,6,6,8,8,8,8,8,8,8,8,8,8,8,8,8,8,8,8,8,8,8,8,8,8,8,8,8,8,8,8,8,8,8,8,8,8,8,8,8,8,8,8,8,8,8,8,8,8,8,8,8,8,8,8,8,8,8,8,8,8,8,8,8,8,8,8,8,8,8,8,8,8,8,8,8,8"
dtnsim.node[7].app.size = "50,500,500,100,100,500,200,100,50,100,200,500,500,500,50,100,50,100,200,500,200,50,100,50,500,200,50,200,200,100,200,200,200,50,500,200,50,50,100,500,50,200,200,500,500,200,200,50,100,100,50,100,200,500,100,100,100,500,50,200,200,200,100,500,100,500,200,50,100,500,50,50,200,500,500,50,50,50,500,50,50,100,500,100,500,200,200,500,500,100,500,200,100,500,100,200,500,50,200,100"
# Node 8 random conversational traffic
dtnsim.node[8].app.enable = true
dtnsim.node[8].app.bundlesNumber = "5,5,4,3,5,3,3,1,2,1,3,4,3,3,4,4,2,4,5,1,1,3,5,3,1,4,2,1,5,2,1,4,1,5,2,2,5,1,5,3,4,2,2,1,5,5,5,3,2,3,4,4,1,3,1,2,4,1,1,5,5,5,4,1,3,3,2,1,5,1,2,3,5,5,3,4,2,5,1,1,5,1,1,4,5,2,3,2,4,3,4,5,1,5,2,1,4,5,1,3"
dtnsim.node[8].app.start = "19,54,81,35,95,77,93,94,42,36,57,40,84,65,74,94,13,71,13,43,68,99,11,76,72,51,14,77,40,83,53,28,19,10,10,97,89,61,100,21,17,23,12,85,20,97,25,82,36,57,96,68,87,1,45,12,71,8,50,15,98,76,18,55,90,73,32,25,14,74,67,34,97,21,68,15,59,35,98,48,40,52,40,4,21,14,10,32,51,87,6,100,28,21,98,91,7,82,11,31"
dtnsim.node[8].app.destinationEid = "7,7,7,7,7,7,7,7,7,7,7,7,7,7,7,7,7,7,7,7,7,7,7,7,7,7,7,7,7,7,7,7,7,7,7,7,7,7,7,7,7,7,7,7,7,7,7,7,9,9,9,9,9,9,9,9,9,9,9,9,9,9,9,9,9,9,9,9,9,9,9,9,9,9,9,9,9,9,9,9,9,9,9,9,9,9,9,9,9,9,9,9,9,9,9,9,9,9,9,9"
dtnsim.node[8].app.size = "500,200,200,200,50,50,100,50,100,500,200,500,500,500,500,200,500,100,200,200,100,500,50,200,500,500,50,200,200,50,50,50,100,50,50,50,50,100,500,500,500,50,100,200,200,50,200,500,100,100,200,200,500,200,500,200,500,500,500,50,100,500,200,100,100,500,200,100,50,500,200,200,100,200,50,100,500,500,50,500,500,100,200,200,50,200,200,500,500,500,200,200,50,50,50,100,100,100,200,200"
# Node 9 random conversational traffic
dtnsim.node[9].app.enable = true
dtnsim.node[9].app.bundlesNumber = "4,5,1,3,2,1,3,1,1,2,1,4,2,3,1,1,3,3,4,3,5,3,2,2,1,2,1,3,3,4,5,4,1,2,2,1,1,5,4,4,1,2,4,3,4,3,1,2,4,2,3,4,3,4,5,4,5,1,3,4,3,5,3,1,4,3,5,5,5,4,2,2,1,5,1,4,3,4,2,4,5,5,1,4,5,3,3,1,3,1,3,4,2,1,2,3,4,5,1,4"
dtnsim.node[9].app.start = "66,69,4,13,73,24,99,19,82,40,76,75,30,70,65,62,27,17,57,29,100,97,84,19,33,63,73,63,60,40,61,95,87,25,97,29,92,33,71,5,9,73,74,84,4,19,3,55,13,53,76,30,78,87,89,86,62,96,67,44,13,38,100,2,47,73,4,73,28,70,49,42,49,25,98,62,71,85,82,63,39,14,57,85,2,90,14,82,20,47,100,25,16,33,13,76,74,43,76,39"
dtnsim.node[9].app.destinationEid = "8,8,8,8,8,8,8,8,8,8,8,8,8,8,8,8,8,8,8,8,8,8,8,8,8,10,10,10,10,10,10,10,10,10,10,10,10,10,10,10,10,10,10,10,10,10,10,10,10,10,10,10,10,10,10,10,10,10,10,10,10,10,10,10,10,10,10,10,10,10,10,10,10,10,10,10,10,10,10,10,10,10,10,10,10,10,10,10,10,10,10,10,10,10,10,10,10,10,10,10"
dtnsim.node[9].app.size = "50,200,100,100,200,200,200,200,500,50,100,200,100,100,200,500,200,200,200,50,100,200,100,500,100,50,100,100,500,500,200,100,500,100,500,50,500,500,50,500,50,500,50,50,100,50,100,500,50,50,100,500,200,50,500,500,50,500,50,100,100,50,500,500,500,100,500,500,50,100,50,200,50,500,200,500,100,100,200,50,200,100,200,200,50,200,500,500,500,500,100,200,100,50,500,200,500,50,200,100"
# Node 10 random conversational traffic
dtnsim.node[10].app.enable = true
dtnsim.node[10].app.bundlesNumber = "1,3,3,1,4,2,1,1,1,5,4,5,3,5,1,4,1,4,5,2,2,2,5,1,2,3,5,3,3,5,1,4,3,4,4,1,1,2,5,2,1,1,3,2,3,5,5,5,1,1,1,4,4,3,4,3,4,3,2,5,1,5,5,5,3,4,5,4,1,4,4,4,5,1,3,4,2,4,1,4,1,2,1,1,4,1,3,5,4,3,1,1,2,1,1,5,2,4,3,1"
dtnsim.node[10].app.start = "70,64,46,91,42,74,8,16,82,80,94,6,20,89,68,46,100,76,9,59,63,78,89,83,20,61,91,29,54,19,40,14,44,86,49,64,8,75,22,46,54,58,66,86,50,59,1,48,57,66,21,35,57,56,62,77,80,97,58,43,45,10,58,88,62,70,54,62,48,70,17,73,45,15,30,87,4,93,77,35,15,48,80,8,12,18,8,72,88,70,3,5,62,32,55,82,1,49,40,52"
dtnsim.node[10].app.destinationEid = "9,9,9,9,9,9,9,9,9,9,9,9,9,9,9,9,9,9,9,9,9,9,9,9,9,9,9,9,9,9,9,9,9,9,9,11,11,11,11,11,11,11,11,11,11,11,11,11,11,11,11,11,11,11,11,11,11,11,11,11,11,11,11,11,11,11,11,11,11,11,11,11,11,11,11,11,11,11,11,11,11,11,11,11,11,11,11,11,11,11,11,11,11,11,11,11,11,11,11,11"
dtnsim.node[10].app.size = "500,200,500,200,50,100,200,100,200,50,500,200,500,500,500,50,500,50,50,50,50,50,200,50,200,500,50,50,100,100,500,500,500,100,200,500,500,500,200,100,100,100,100,200,50,200,200,100,100,200,100,500,200,500,50,500,500,200,500,200,500,500,200,200,100,100,50,200,50,200,500,200,50,100,50,500,500,200,50,100,50,100,100,200,50,50,200,500,200,200,50,100,500,50,50,100,100,500,500,100"
# Node 11 random conversational traffic
dtnsim.node[11].app.enable = true
dtnsim.node[11].app.bundlesNumber = "4,5,5,1,1,2,4,3,2,2,1,5,3,2,3,4,5,2,4,1,5,3,3,4,3,4,5,2,5,5,3,1,4,2,2,5,1,5,5,4,2,3,5,4,1,4,1,2,3,3,4,3,1,5,5,4,5,2,5,3,1,1,1,4,4,1,2,2,2,3,3,4,2,4,4,1,2,4,3,2,4,2,4,1,3,5,4,1,3,5,5,3,1,3,5,1,4,1,4,1"
dtnsim.node[11].app.start = "67,14,77,27,54,67,74,58,61,57,28,61,60,86,52,66,69,78,57,63,58,82,24,37,92,12,98,78,53,84,13,26,92,8,11,66,62,7,58,42,99,68,24,25,14,94,47,45,81,20,99,96,83,98,95,94,89,88,5,44,63,97,79,14,35,77,1,30,65,6,65,98,48,74,17,22,68,5,53,68,75,4,56,93,57,10,64,17,84,54,59,68,7,62,52,56,82,18,68,73"
dtnsim.node[11].app.destinationEid = "10,10,10,10,10,10,10,10,10,10,10,10,10,10,10,10,10,10,10,10,10,10,10,10,10,10,10,10,10,10,10,10,10,10,10,10,10,10,10,10,12,12,12,12,12,12,12,12,12,12,12,12,12,12,12,12,12,12,12,12,12,12,12,12,12,12,12,12,12,12,12,12,12,12,12,12,12,12,12,12,12,12,12,12,12,12,12,12,12,12,12,12,12,12,12,12,12,12,12,12"
dtnsim.node[11].app.size = "200,200,100,50,200,200,500,50,50,200,50,50,200,500,100,50,100,200,100,200,200,50,50,200,50,200,500,500,200,100,200,100,50,100,50,200,50,200,500,500,100,100,200,50,200,100,500,500,50,100,50,200,200,200,500,100,100,500,500,100,100,50,500,500,50,200,200,50,100,100,500,100,100,50,500,500,100,500,200,500,500,50,500,200,500,500,50,100,200,500,50,50,50,100,50,200,50,500,50,50"
# Node 12 random conversational traffic
dtnsim.node[12].app.enable = true
dtnsim.node[12].app.bundlesNumber = "4,1,4,4,3,1,4,1,4,4,2,4,4,4,5,3,1,2,5,1,5,2,5,1,5,2,5,2,4,3,2,3,5,5,3,1,4,4,5,4,2,5,4,1,1,2,1,5,2,4,3,4,1,4,1,2,2,2,1,3,2,5,4,2,3,3,4,4,3,4,1,2,2,2,5,2,1,2,2,4,5,4,2,4,5,4,5,3,4,2,4,5,5,1,4,3,2,5,2,4"
dtnsim.node[12].app.start = "100,72,25,96,51,51,22,100,98,88,100,97,96,6,64,98,22,39,9,70,99,56,77,18,76,62,81,8,59,96,60,72,63,63,10,65,53,71,81,50,32,76,60,31,58,45,63,34,96,5,42,15,67,58,24,67,82,85,36,77,77,87,97,48,68,25,70,66,63,59,21,27,74,59,76,82,17,63,63,96,24,71,70,47,44,41,82,73,98,2,36,78,80,76,28,1,27,44,69,46"
dtnsim.node[12].app.destinationEid = "11,11,11,11,11,11,11,11,11,11,11,11,11,11,11,11,11,11,11,11,11,11,11,11,11,11,11,11,11,11,11,11,11,11,11,11,11,11,11,13,13,13,13,13,13,13,13,13,13,13,13,13,13,13,13,13,13,13,13,13,13,13,13,13,13,13,13,13,13,13,13,13,13,13,13,13,13,13,13,13,13,13,13,13,13,13,13,13,13,13,13,13,13,13,13,13,13,13,13,13"
dtnsim.node[12].app.size = "500,200,200,200,500,100,200,100,500,100,50,200,100,50,200,50,200,50,100,200,200,100,500,50,50,500,500,100,50,200,200,200,100,50,500,50,100,500,500,200,100,200,100,100,200,200,500,100,50,50,50,200,500,50,100,100,50,200,500,500,50,50,100,50,50,100,500,100,200,200,100,500,50,50,50,100,100,200,100,50,100,200,200,200,500,100,500,50,100,50,200,200,100,200,200,500,50,100,50,100"
# Node 13 random conversational traffic
dtnsim.node[13].app.enable = true
dtnsim.node[13].app.bundlesNumber = "3,1,3,2,4,1,2,2,3,4,4,5,3,3,2,2,3,5,4,5,2,4,3,5,3,5,2,5,4,1,3,3,1,3,3,2,5,3,1,2,1,2,1,2,5,1,2,1,5,1,1,5,4,5,5,4,1,2,2,5,3,1,3,3,2,2,4,3,3,3,5,3,5,1,3,3,2,1,5,2,5,4,2,2,2,3,2,4,5,5,4,3,3,4,1,4,5,1,1,1"
dtnsim.node[13].app.start = "52,41,77,39,66,55,71,42,97,6,17,75,33,76,90,91,82,99,76,71,73,61,22,34,64,85,27,99,79,55,74,100,3,87,86,29,11,31,46,77,48,28,59,70,35,9,31,67,45,24,40,29,32,13,58,6,4,94,68,22,42,16,43,60,93,80,61,65,92,62,20,15,40,51,75,43,73,34,62,4,95,11,94,31,21,92,20,62,3,97,24,46,10,3,67,42,75,50,51,90"
dtnsim.node[13].app.destinationEid = "12,12,12,12,12,12,12,12,12,12,12,12,12,12,12,12,12,12,12,12,12,12,12,12,12,12,12,12,12,12,12,12,12,12,12,12,12,12,12,12,12,14,14,14,14,14,14,14,14,14,14,14,14,14,14,14,14,14,14,14,14,14,14,14,14,14,14,14,14,14,14,14,14,14,14,14,14,14,14,14,14,14,14,14,14,14,14,14,14,14,14,14,14,14,14,14,14,14,14,14"
dtnsim.node[13].app.size = "50,50,200,50,500,100,50,50,500,500,500,500,500,100,500,100,50,100,500,50,200,50,200,50,500,50,200,500,100,100,100,200,200,500,100,200,50,100,200,50,50,100,100,500,500,500,500,100,50,500,50,200,50,100,100,50,500,50,50,100,500,200,500,200,500,100,100,200,500,500,50,500,50,50,50,200,50,50,100,500,50,200,500,50,50,50,500,200,50,200,500,500,200,200,500,100,500,500,200,50"
# Node 14 random conversational traffic
dtnsim.node[14].app.enable = true
dtnsim.node[14].app.bundlesNumber = "1,1,1,4,4,3,3,3,4,1,2,3,1,1,4,5,5,4,3,3,4,4,5,2,1,1,1,5,4,4,1,1,1,3,4,2,5,1,4,5,2,3,3,5,1,4,3,3,2,2,1,2,4,1,2,5,2,5,2,3,5,5,4,1,2,2,2,1,2,2,4,4,1,4,4,1,4,1,1,4,3,3,3,2,4,3,4,4,2,2,1,3,4,2,4,1,2,1,5,5"
dtnsim.node[14].app.start = "33,64,74,14,77,55,25,67,10,70,17,48,88,75,64,22,16,42,55,5,17,96,97,24,71,10,100,30,53,12,7,69,45,54,100,9,36,53,33,48,54,28,53,63,36,5,73,76,41,2,67,75,7,85,66,25,86,94,78,52,96,26,81,92,38,87,14,23,62,78,42,22,73,35,33,18,34,49,21,40,55,59,57,2,22,45,81,29,15,85,34,97,23,33,43,6,58,94,18,17"
dtnsim.node[14].app.destinationEid = "13,13,13,13,13,13,13,13,13,13,13,13,13,13,13,13,13,13,13,13,13,13,13,13,13,13,13,13,13,13,13,13,13,13,13,15,15,15,15,15,15,15,15,15,15,15,15,15,15,15,15,15,15,15,15,15,15,15,15,15,15,15,15,15,15,15,15,15,15,15,15,15,15,15,15,15,15,15,15,15,15,15,15,15,15,15,15,15,15,15,15,15,15,15,15,15,15,15,15,15"
dtnsim.node[14].app.size = "100,500,500,200,100,200,500,200,200,500,500,50,500,50,100,100,500,50,500,100,50,200,200,100,100,500,500,200,200,100,200,100,50,100,500,100,200,500,200,500,50,500,100,50,100,200,100,200,500,200,50,50,500,100,200,100,500,50,100,100,500,100,200,50,200,50,500,100,500,100,500,200,50,500,200,50,50,200,200,50,100,100,50,200,200,200,100,100,200,500,200,50,100,200,200,50,50,200,100,100"
# Node 15 random conversational traffic
dtnsim.node[15].app.enable = true
dtnsim.node[15].app.bundlesNumber = "5,2,1,4,1,1,3,2,5,1,3,5,2,3,5,5,2,1,5,4,1,2,3,3,3,3,3,4,2,4,2,2,3,1,1,4,2,5,5,5,1,3,4,1,1,3,2,1,2,1,3,5,5,1,3,5,4,1,3,2,3,2,2,4,5,1,5,3,5,3,1,1,1,1,1,2,4,3,4,2,5,1,4,4,5,1,2,2,5,3,1,1,2,5,3,1,5,3,5,1"
dtnsim.node[15].app.start = "14,37,55,42,56,58,65,41,86,50,69,85,16,72,30,88,54,100,36,86,90,19,82,35,26,65,60,3,88,36,48,59,100,19,21,86,91,59,19,3,31,90,93,84,2,51,35,29,1,20,52,70,12,5,43,71,2,13,20,57,3,57,6,44,62,38,9,17,85,98,81,55,68,23,49,2,16,39,99,63,32,76,96,99,56,14,100,63,91,50,74,10,42,72,9,88,62,41,1,78"
dtnsim.node[15].app.destinationEid = "14,14,14,14,14,14,14,14,14,14,14,14,14,14,14,14,14,14,14,14,14,14,14,14,14,14,14,14,14,14,14,14,14,14,14,16,16,16,16,16,16,16,16,16,16,16,16,16,16,16,16,16,16,16,16,16,16,16,16,16,16,16,16,16,16,16,16,16,16,16,16,16,16,16,16,16,16,16,16,16,16,16,16,16,16,16,16,16,16,16,16,16,16,16,16,16,16,16,16,16"
dtnsim.node[15].app.size = "500,500,200,100,100,50,200,50,100,200,500,100,500,50,200,200,500,500,500,50,100,200,50,100,50,500,100,100,100,500,100,500,100,200,50,50,100,50,200,50,50,100,100,100,100,100,100,500,200,50,100,100,50,500,50,500,200,50,200,200,100,100,100,200,100,200,50,200,200,200,50,50,100,500,200,50,500,50,50,200,100,50,100,200,500,200,500,100,100,200,200,50,50,500,500,50,50,500,100,200"
# Node 16 random conversational traffic
dtnsim.node[16].app.enable = true
dtnsim.node[16].app.bundlesNumber = "5,2,4,4,3,4,1,2,1,3,5,4,5,5,4,5,4,5,3,1,5,1,2,3,2,4,4,3,3,4,3,5,4,1,2,1,5,3,4,5,4,2,2,5,5,5,4,5,1,4,2,3,1,4,5,2,3,1,2,1,2,1,2,3,1,2,1,1,5,2,4,3,3,5,1,5,5,2,4,5,4,3,1,1,1,4,5,3,5,4,1,4,3,2,3,4,4,4,1,4"
dtnsim.node[16].app.start = "88,68,26,4,38,94,94,4,56,38,36,72,15,80,28,67,11,11,49,70,44,14,18,100,89,64,24,9,17,67,98,57,23,72,54,77,20,49,13,95,80,66,46,16,43,40,57,5,99,13,18,32,21,86,11,45,26,6,89,60,67,6,38,45,85,80,11,75,51,15,21,16,21,100,99,72,85,74,35,72,91,98,24,59,4,21,29,82,54,29,100,6,18,59,46,13,78,81,66,5"
dtnsim.node[16].app.destinationEid = "15,15,15,15,15,15,15,15,15,15,15,15,15,15,15,15,15,15,15,15,15,15,15,15,15,15,15,15,15,15,15,15,15,15,15,15,15,15,15,15,15,17,17,17,17,17,17,17,17,17,17,17,17,17,17,17,17,17,17,17,17,17,17,17,17,17,17,17,17,17,17,17,17,17,17,17,17,17,17,17,17,17,17,17,17,17,17,17,17,17,17,17,17,17,17,17,17,17,17,17"
dtnsim.node[16].app.size = "200,50,200,50,500,200,100,200,500,200,50,200,100,50,500,50,50,500,100,200,50,50,100,100,200,200,50,50,50,100,200,50,50,200,50,500,50,100,100,50,500,100,200,200,50,200,50,200,500,200,200,200,50,200,200,50,100,50,100,50,50,100,50,100,500,100,50,100,50,100,200,100,500,200,500,500,500,50,100,200,50,100,200,200,500,500,500,500,200,50,100,200,200,500,100,50,500,100,50,50"
# Node 17 random conversational traffic
dtnsim.node[17].app.enable = true
dtnsim.node[17].app.bundlesNumber = "4,2,1,5,5,4,1,2,1,2,4,4,5,3,1,1,4,1,5,2,1,4,3,4,5,2,3,1,4,3,5,5,4,4,3,1,5,1,1,4,5,2,2,4,2,2,4,5,1,4,3,3,4,5,5,5,2,5,1,1,1,2,1,4,3,3,1,5,4,1,3,2,4,5,3,4,3,3,2,5,4,1,5,2,2,1,1,1,3,2,3,1,5,5,2,5,2,5,1,1"
dtnsim.node[17].app.start = "68,48,47,11,100,16,25,22,93,19,32,95,77,16,54,93,83,14,79,28,20,26,100,100,77,78,45,93,33,14,55,38,15,68,20,74,12,98,72,42,27,29,74,36,99,34,68,99,49,51,24,13,52,81,82,62,83,8,36,86,45,37,51,2,93,78,4,2,79,22,72,37,20,76,35,84,40,92,83,52,48,17,78,16,48,16,59,20,40,90,17,36,47,64,3,40,92,44,2,74"
dtnsim.node[17].app.destinationEid = "16,16,16,16,16,16,16,16,16,16,16,16,16,16,16,16,16,16,16,16,16,16,16,16,16,16,16,16,16,16,16,16,16,16,16,16,16,18,18,18,18,18,18,18,18,18,18,18,18,18,18,18,18,18,18,18,18,18,18,18,18,18,18,18,18,18,18,18,18,18,18,18,18,18,18,18,18,18,18,18,18,18,18,18,18,18,18,18,18,18,18,18,18,18,18,18,18,18,18,18"
dtnsim.node[17].app.size = "50,500,50,100,100,50,500,200,200,50,500,200,100,50,500,50,500,200,500,500,50,100,200,500,50,50,500,50,50,50,100,200,50,50,200,100,100,50,200,100,200,100,100,500,50,100,200,500,100,500,100,100,200,200,100,100,200,500,50,50,200,100,100,500,100,50,500,500,200,200,200,200,50,500,200,50,500,50,500,500,100,200,50,50,500,100,50,500,500,50,200,200,500,100,100,500,500,100,50,50"
# Node 18 random conversational traffic
dtnsim.node[18].app.enable = true
dtnsim.node[18].app.bundlesNumber = "4,5,4,5,5,4,4,3,2,1,2,1,3,5,4,3,3,3,1,3,3,1,4,1,1,1,5,2,3,4,3,2,2,5,3,4,4,1,2,5,1,5,2,1,3,5,1,1,4,3,1,4,2,4,3,2,2,5,3,5,5,5,1,4,2,1,4,4,1,4,1,1,5,5,2,3,5,2,4,5,1,3,2,4,5,2,1,5,3,2,3,3,1,2,4,4,5,5,4,1"
dtnsim.node[18].app.start = "77,46,30,32,39,100,44,100,54,55,88,87,90,53,97,85,12,81,24,73,22,79,45,93,92,55,56,23,83,23,68,48,95,18,40,6,94,50,11,66,1,26,3,24,54,100,45,5,81,42,43,49,49,67,68,39,29,22,88,71,66,28,35,50,86,37,27,21,2,84,17,53,72,13,65,42,84,37,63,24,56,86,33,18,55,23,10,86,72,10,68,67,91,5,59,87,83,24,79,3"
dtnsim.node[18].app.destinationEid = "17,17,17,17,17,17,17,17,17,17,17,17,17,17,17,17,17,17,17,17,17,17,17,17,17,17,17,17,17,17,17,17,17,17,17,17,17,17,19,19,19,19,19,19,19,19,19,19,19,19,19,19,19,19,19,19,19,19,19,19,19,19,19,19,19,19,19,19,19,19,19,19,19,19,19,19,19,19,19,19,19,19,19,19,19,19,19,19,19,19,19,19,19,19,19,19,19,19,19,19"
dtnsim.node[18].app.size = "50,200,100,200,500,100,100,200,100,100,200,200,500,200,50,100,200,500,50,200,500,100,200,500,100,100,500,200,50,200,50,500,50,200,100,500,500,100,50,50,100,50,500,100,500,100,100,500,50,500,50,50,50,50,200,100,50,50,100,50,100,100,50,500,200,500,100,100,100,200,50,200,200,500,200,50,50,500,500,500,50,200,500,100,200,200,100,100,50,100,100,200,500,500,50,100,50,500,500,50"
# Node 19 random conversational traffic
dtnsim.node[19].app.enable = true
dtnsim.node[19].app.bundlesNumber = "2,4,5,4,5,1,5,5,5,2,5,1,3,2,5,2,1,2,5,3,3,3,2,2,2,4,5,5,4,3,3,4,5,3,1,3,3,5,3,5,4,4,5,3,4,2,1,2,5,2,4,5,4,4,5,4,2,3,5,2,2,2,2,4,3,1,1,2,1,4,3,1,5,3,4,1,3,5,2,1,5,4,2,3,4,4,1,4,5,1,4,4,3,3,3,4,3,1,1,4"
dtnsim.node[19].app.start = "10,5,34,100,49,86,57,74,78,35,97,78,75,35,38,60,41,31,31,6,85,21,62,75,17,73,50,89,88,34,28,61,18,95,20,71,70,92,12,64,96,85,87,7,67,46,11,85,24,18,10,25,13,54,74,95,10,92,17,89,24,49,42,14,62,65,86,71,45,70,11,89,25,14,42,64,97,81,36,64,92,27,56,84,83,82,80,8,48,40,82,23,74,47,60,21,6,69,54,27"
dtnsim.node[19].app.destinationEid = "18,18,18,18,18,18,18,18,18,18,18,18,18,18,18,18,18,18,18,18,18,18,18,18,18,18,18,18,18,18,18,18,18,18,18,18,18,18,18,18,18,18,18,18,20,20,20,20,20,20,20,20,20,20,20,20,20,20,20,20,20,20,20,20,20,20,20,20,20,20,20,20,20,20,20,20,20,20,20,20,20,20,20,20,20,20,20,20,20,20,20,20,20,20,20,20,20,20,20,20"
dtnsim.node[19].app.size = "100,100,50,500,200,50,100,200,200,200,50,500,50,200,50,100,50,50,50,500,50,200,200,50,500,100,100,200,50,100,100,50,100,100,500,100,200,100,200,500,500,200,50,50,100,50,500,200,100,500,500,50,200,50,100,200,100,500,100,50,50,500,200,200,50,100,100,200,200,50,500,500,100,100,50,500,50,200,50,100,50,50,200,200,500,500,200,500,100,200,50,100,100,100,50,100,500,100,100,500"
# Node 20 random conversational traffic
dtnsim.node[20].app.enable = true
dtnsim.node[20].app.bundlesNumber = "5,2,4,3,5,1,4,1,4,4,3,2,5,3,5,2,5,3,4,4,2,1,1,5,5,1,3,1,1,4,2,2,4,2,3,2,1,3,3,5,4,3,5,3,1,2,2,1,3,3,1,1,1,2,4,4,5,2,3,4,1,5,1,4,3,4,2,2,1,1,5,2,3,2,5,1,5,5,1,2,4,4,4,1,2,1,1,1,4,1,3,1,3,3,2,5,4,1,4,3"
dtnsim.node[20].app.start = "47,16,87,22,18,29,20,63,82,12,95,18,96,25,51,46,19,87,54,78,19,97,26,17,45,68,100,45,65,100,90,91,91,84,50,88,32,53,64,13,71,64,70,66,79,15,73,1,12,24,98,14,2,87,2,47,86,87,92,72,26,6,77,6,50,6,93,82,25,15,85,98,73,86,20,72,54,19,11,85,97,22,84,8,38,8,72,4,82,89,52,23,86,77,80,8,55,30,43,3"
dtnsim.node[20].app.destinationEid = "19,19,19,19,19,19,19,19,19,19,19,19,19,19,19,19,19,19,19,19,19,19,19,19,19,19,19,19,19,19,19,19,19,19,19,19,19,19,19,19,19,19,21,21,21,21,21,21,21,21,21,21,21,21,21,21,21,21,21,21,21,21,21,21,21,21,21,21,21,21,21,21,21,21,21,21,21,21,21,21,21,21,21,21,21,21,21,21,21,21,21,21,21,21,21,21,21,21,21,21"
dtnsim.node[20].app.size = "100,50,200,100,200,50,200,200,100,500,100,200,200,200,100,50,50,50,200,200,50,500,200,500,50,50,200,200,100,500,50,100,100,100,200,50,200,50,200,500,200,50,500,100,100,200,50,500,200,100,100,50,100,500,50,50,50,100,200,100,200,200,500,100,50,50,500,200,500,100,500,100,100,100,500,100,500,50,100,100,500,500,100,100,200,500,100,50,100,200,100,100,100,50,100,50,500,500,100,50"
# Node 21 random conversational traffic
dtnsim.node[21].app.enable = true
dtnsim.node[21].app.bundlesNumber = "2,5,2,4,4,3,2,1,5,5,5,5,5,3,4,3,1,5,1,5,5,4,1,2,2,3,5,2,1,4,1,5,5,1,3,2,5,2,3,3,3,2,1,1,5,5,3,4,2,5,1,5,2,5,4,4,4,3,5,1,3,5,4,5,5,2,5,2,4,5,5,5,5,4,1,1,2,5,4,2,1,4,3,2,3,1,5,3,3,4,5,4,2,2,1,4,1,2,2,4"
dtnsim.node[21].app.start = "79,23,81,31,100,11,48,91,96,78,10,85,20,89,99,89,90,23,16,78,11,86,32,84,40,49,50,63,75,4,95,2,79,84,1,56,18,67,86,20,46,68,2,19,96,51,19,5,74,57,67,71,83,10,80,31,87,86,54,3,52,20,19,46,28,22,96,52,100,20,19,7,12,27,45,6,58,41,84,37,42,63,36,78,1,78,40,94,29,62,70,5,89,48,60,84,68,91,45,67"
dtnsim.node[21].app.destinationEid = "20,20,20,20,20,20,20,20,20,20,20,20,20,20,20,20,20,20,20,20,20,20,20,20,20,20,22,22,22,22,22,22,22,22,22,22,22,22,22,22,22,22,22,22,22,22,22,22,22,22,22,22,22,22,22,22,22,22,22,22,22,22,22,22,22,22,22,22,22,22,22,22,22,22,22,22,22,22,22,22,22,22,22,22,22,22,22,22,22,22,22,22,22,22,22,22,22,22,22,22"
dtnsim.node[21].app.size = "50,500,200,200,100,50,200,50,200,200,50,200,100,500,50,100,500,500,500,200,50,500,100,50,100,200,50,200,200,100,100,500,100,100,50,500,100,500,200,100,500,50,500,500,200,50,50,50,500,500,100,50,50,500,200,500,200,50,100,200,200,200,100,500,50,100,100,500,200,500,500,100,200,500,200,100,200,100,200,100,100,200,500,50,50,50,50,200,50,500,200,50,500,50,200,100,50,50,200,100"
# Node 22 random conversational traffic
dtnsim.node[22].app.enable = true
dtnsim.node[22].app.bundlesNumber = "1,2,2,4,5,2,5,2,2,2,5,2,1,5,2,5,4,2,4,3,4,5,4,3,1,2,5,3,5,5,3,1,1,5,3,1,3,4,4,1,5,3,4,3,2,4,3,4,1,3,5,5,1,1,1,3,3,3,2,2,1,5,5,3,5,5,5,3,2,5,1,5,2,1,1,3,2,2,2,1,2,5,3,3,2,3,5,4,3,3,2,4,1,3,5,4,3,2,5,2"
dtnsim.node[22].app.start = "64,6,98,4,89,89,7,57,93,21,47,98,29,9,67,72,83,96,63,12,54,23,56,32,24,20,15,13,47,43,81,79,42,100,39,73,94,58,94,72,66,49,3,76,54,96,94,25,33,59,11,82,70,57,47,45,65,33,97,16,17,89,11,23,94,20,25,84,56,40,36,51,10,35,22,9,62,59,37,53,68,65,54,10,83,56,77,83,88,43,94,31,91,63,30,32,37,54,53,77"
dtnsim.node[22].app.destinationEid = "21,21,21,21,21,21,21,21,21,21,21,21,21,21,21,21,21,21,21,21,21,21,21,21,21,21,21,21,21,21,21,21,21,21,21,21,21,21,21,21,23,23,23,23,23,23,23,23,23,23,23,23,23,23,23,23,23,23,23,23,23,23,23,23,23,23,23,23,23,23,23,23,23,23,23,23,23,23,23,23,23,23,23,23,23,23,23,23,23,23,23,23,23,23,23,23,23,23,23,23"