[General]
network = src.dtnsim										
repeat = 1
allow-object-stealing-on-deletion = true

# Simulation end time
sim-time-limit = 84600s

# Nodes quantity (identifiers (EiDs) matches their index, EiD=0 is ignored)			
dtnsim.nodesNumber = 240
dtnsim.node[*].icon = "satellite"

# Nodes's failure rates
dtnsim.node[*].fault.enable = true
dtnsim.node[*].fault.meanTTF = 190s
dtnsim.node[*].fault.meanTTR = 10s

# Mobility
dtnsim.node[*].hasMobility = true
dtnsim.node[*].noradModule.satIndex = parentIndex()
dtnsim.node[*].noradModule.satName = "sat"
**.updateInterval = 20s
**.numOfSats = 240
**.satPerPlane = 12
**.altitude = 540
**.planes = 20
**.phaseOffset = 11

dtnsim.node[*].dtn.routing = "antop"
dtnsim.node[*].dtn.printRoutingDebug = true

# --- Random Traffic Configuration ---
# Node 1 random traffic
dtnsim.node[1].app.enable = true
dtnsim.node[1].app.bundlesNumber = "1,1,1,1,1,1,1,1,1,1,1,1,1,1,1,1,1,1,1,1,1,1,1,1,1,1,1,1,1,1,1,1,1,1,1,1,1,1,1,1,1,1,1,1,1,1,1,1,1,1,1,1,1,1,1,1,1,1,1,1,1,1,1,1,1,1,1,1,1,1,1,1,1,1,1,1,1,1,1,1,1,1,1,1,1,1,1,1,1,1,1,1,1,1,1,1,1,1,1,1"
dtnsim.node[1].app.start = "13,13,5,1,16,12,7,8,11,18,1,11,6,9,18,8,10,2,2,15,1,1,14,17,11,18,11,9,7,17,8,13,1,14,15,15,2,20,2,2,14,15,12,13,17,18,8,3,13,17,12,13,19,9,1,19,15,20,12,9,12,9,14,4,18,11,5,15,9,3,17,1,2,7,8,17,6,6,1,14,20,14,3,19,7,2,12,16,15,10,19,2,11,9,19,12,5,19,11,13"
dtnsim.node[1].app.destinationEid = "158,52,91,16,113,208,70,10,167,213,133,68,74,104,19,85,196,69,140,92,204,8,21,135,217,113,9,208,62,192,182,239,228,230,225,136,76,134,234,149,183,186,233,217,227,124,125,7,66,71,58,119,43,121,153,59,76,166,213,196,184,230,240,205,227,208,173,155,11,65,87,196,21,90,168,38,209,217,56,141,171,197,16,7,6,184,201,208,138,17,74,31,34,228,5,140,103,48,53,209"
dtnsim.node[1].app.size = "500,200,200,100,500,50,50,100,200,500,100,200,50,200,50,50,200,500,200,500,200,50,200,200,500,500,100,500,50,200,500,100,100,200,100,50,50,500,50,50,50,500,100,100,500,500,200,50,500,50,50,200,100,500,500,100,50,100,500,50,500,200,500,50,100,200,100,100,100,50,100,50,500,500,50,200,200,500,500,500,200,50,500,100,500,500,50,500,50,200,200,100,50,200,500,200,50,100,200,100"
        # Node 2 random traffic
dtnsim.node[2].app.enable = true
dtnsim.node[2].app.bundlesNumber = "1,1,1,1,1,1,1,1,1,1,1,1,1,1,1,1,1,1,1,1,1,1,1,1,1,1,1,1,1,1,1,1,1,1,1,1,1,1,1,1,1,1,1,1,1,1,1,1,1,1,1,1,1,1,1,1,1,1,1,1,1,1,1,1,1,1,1,1,1,1,1,1,1,1,1,1,1,1,1,1,1,1,1,1,1,1,1,1,1,1,1,1,1,1,1,1,1,1,1,1"
dtnsim.node[2].app.start = "20,10,7,3,20,17,16,15,17,4,12,11,13,8,18,18,15,17,5,16,11,5,7,18,5,15,15,9,16,18,4,11,12,6,15,2,15,4,16,4,3,19,15,6,6,16,18,15,1,6,12,12,6,20,2,18,12,12,13,13,5,12,6,13,5,19,2,10,13,5,17,16,13,8,13,16,9,9,12,19,15,12,8,3,10,18,4,13,1,8,5,8,14,13,14,4,6,4,6,20"
dtnsim.node[2].app.destinationEid = "50,30,44,8,221,98,33,239,7,117,192,53,20,170,15,186,76,17,240,212,134,208,122,149,112,190,74,129,158,96,158,48,205,235,152,68,105,99,57,198,114,58,93,68,10,207,206,74,17,206,93,209,203,226,148,128,60,127,177,63,204,216,119,185,172,49,222,96,29,34,225,18,135,190,216,136,209,66,18,209,174,170,219,194,70,205,35,209,107,177,24,83,100,219,160,197,68,141,153,11"
dtnsim.node[2].app.size = "500,200,500,100,50,200,200,100,50,100,100,200,100,100,200,50,100,50,100,50,100,200,50,500,200,200,200,50,50,100,500,50,100,100,50,500,500,200,100,500,500,500,500,50,100,500,500,100,100,50,200,200,50,500,50,500,100,100,50,50,200,200,100,50,50,100,200,100,100,100,500,100,200,50,50,500,500,50,50,50,50,200,50,50,50,500,500,200,500,500,500,500,500,200,100,100,500,100,50,200"
        # Node 3 random traffic
dtnsim.node[3].app.enable = true
dtnsim.node[3].app.bundlesNumber = "1,1,1,1,1,1,1,1,1,1,1,1,1,1,1,1,1,1,1,1,1,1,1,1,1,1,1,1,1,1,1,1,1,1,1,1,1,1,1,1,1,1,1,1,1,1,1,1,1,1,1,1,1,1,1,1,1,1,1,1,1,1,1,1,1,1,1,1,1,1,1,1,1,1,1,1,1,1,1,1,1,1,1,1,1,1,1,1,1,1,1,1,1,1,1,1,1,1,1,1"
dtnsim.node[3].app.start = "10,17,10,5,6,19,11,2,9,8,11,20,1,14,18,12,11,6,11,10,9,16,16,13,17,17,6,11,17,16,5,7,4,15,20,20,2,3,20,17,1,16,13,10,3,9,5,4,2,13,13,5,1,3,9,14,20,7,2,11,5,20,8,16,3,5,17,5,17,2,15,6,8,16,5,1,16,11,2,16,4,2,11,6,1,5,5,5,11,10,14,15,20,4,9,12,16,18,8,18"
dtnsim.node[3].app.destinationEid = "218,148,65,151,162,59,113,23,22,229,174,134,40,192,6,61,189,204,9,63,179,147,217,44,92,49,51,213,187,114,13,108,44,99,5,119,50,219,153,17,146,222,63,210,123,196,19,114,226,126,41,90,145,30,160,67,118,180,90,221,38,68,36,101,140,184,167,45,214,65,65,207,54,213,208,57,90,206,147,13,225,174,194,180,114,110,11,81,80,108,134,215,153,225,145,139,214,125,36,8"
dtnsim.node[3].app.size = "200,200,50,200,200,200,500,200,50,50,500,200,100,100,200,500,50,50,200,100,50,200,500,500,50,500,500,500,500,200,100,100,50,50,50,200,50,200,200,100,500,50,200,100,200,500,500,50,100,100,500,100,500,100,100,100,100,100,50,500,50,200,500,50,200,500,200,500,100,50,100,200,50,50,200,500,500,200,100,200,50,500,100,50,200,200,100,50,500,50,200,50,200,50,500,100,200,500,100,200"
        # Node 4 random traffic
dtnsim.node[4].app.enable = true
dtnsim.node[4].app.bundlesNumber = "1,1,1,1,1,1,1,1,1,1,1,1,1,1,1,1,1,1,1,1,1,1,1,1,1,1,1,1,1,1,1,1,1,1,1,1,1,1,1,1,1,1,1,1,1,1,1,1,1,1,1,1,1,1,1,1,1,1,1,1,1,1,1,1,1,1,1,1,1,1,1,1,1,1,1,1,1,1,1,1,1,1,1,1,1,1,1,1,1,1,1,1,1,1,1,1,1,1,1,1"
dtnsim.node[4].app.start = "16,8,6,8,9,11,3,8,3,11,5,3,13,7,1,11,7,20,3,16,3,4,2,13,3,1,18,20,12,6,13,16,13,19,13,9,9,15,7,7,12,20,1,11,7,9,12,15,7,4,14,8,19,3,3,3,7,18,20,9,6,12,9,16,4,14,7,19,20,13,16,3,18,5,13,2,16,18,4,7,7,17,6,19,18,11,16,12,4,19,5,20,8,3,19,16,5,11,13,17"
dtnsim.node[4].app.destinationEid = "125,150,40,175,169,169,18,39,92,210,214,125,129,85,225,59,90,217,209,199,2,170,7,98,161,121,7,75,24,2,214,19,140,31,14,160,117,234,135,239,85,34,38,171,27,160,25,80,58,222,17,227,152,122,236,123,43,173,98,162,111,141,45,7,57,180,148,3,50,7,40,73,72,198,108,99,205,56,180,105,67,9,109,205,103,6,161,34,16,34,240,204,153,16,83,221,9,21,196,92"
dtnsim.node[4].app.size = "200,500,200,500,500,200,200,50,50,100,100,200,500,100,50,500,500,200,50,200,50,50,500,200,100,100,50,200,500,50,200,500,500,200,500,200,100,200,500,500,100,500,100,100,500,500,100,200,100,500,50,50,200,500,100,50,100,200,100,500,200,100,500,50,50,100,200,200,200,500,200,50,50,200,50,100,100,500,100,100,500,500,100,500,200,200,200,200,500,200,100,200,50,200,100,100,500,200,50,50"
        # Node 5 random traffic
dtnsim.node[5].app.enable = true
dtnsim.node[5].app.bundlesNumber = "1,1,1,1,1,1,1,1,1,1,1,1,1,1,1,1,1,1,1,1,1,1,1,1,1,1,1,1,1,1,1,1,1,1,1,1,1,1,1,1,1,1,1,1,1,1,1,1,1,1,1,1,1,1,1,1,1,1,1,1,1,1,1,1,1,1,1,1,1,1,1,1,1,1,1,1,1,1,1,1,1,1,1,1,1,1,1,1,1,1,1,1,1,1,1,1,1,1,1,1"
dtnsim.node[5].app.start = "6,17,18,12,3,4,5,20,19,3,13,6,3,3,15,17,19,4,15,2,2,17,1,10,17,19,19,15,5,20,5,13,17,1,17,13,2,8,19,7,10,20,11,2,19,16,3,16,15,15,7,4,4,5,13,14,16,5,14,11,1,16,9,4,1,13,8,11,18,13,15,11,7,9,19,8,4,11,13,5,7,15,4,15,11,6,14,20,1,11,12,16,6,13,12,12,8,19,4,16"
dtnsim.node[5].app.destinationEid = "13,97,58,200,232,191,163,128,161,120,69,87,4,23,78,232,59,212,12,206,106,74,77,151,1,213,133,29,95,32,221,52,48,223,234,142,127,97,39,105,30,233,89,139,224,239,86,228,133,221,99,106,210,89,188,48,29,114,210,154,172,238,142,26,157,183,220,103,174,21,232,21,37,229,89,30,115,37,111,125,111,80,151,95,227,230,209,146,63,150,4,119,154,90,4,165,107,10,167,73"
dtnsim.node[5].app.size = "50,200,500,50,500,500,500,500,500,500,50,100,200,200,50,50,200,500,100,100,500,100,500,50,50,100,100,200,200,50,100,500,500,500,50,100,50,100,500,500,100,50,50,100,100,500,500,500,200,100,100,200,200,500,500,50,200,50,500,500,50,100,200,200,200,100,100,500,200,200,200,500,500,500,100,500,500,200,500,50,50,200,50,500,500,500,500,200,50,500,500,100,500,100,200,100,50,100,200,50"
        # Node 6 random traffic
dtnsim.node[6].app.enable = true
dtnsim.node[6].app.bundlesNumber = "1,1,1,1,1,1,1,1,1,1,1,1,1,1,1,1,1,1,1,1,1,1,1,1,1,1,1,1,1,1,1,1,1,1,1,1,1,1,1,1,1,1,1,1,1,1,1,1,1,1,1,1,1,1,1,1,1,1,1,1,1,1,1,1,1,1,1,1,1,1,1,1,1,1,1,1,1,1,1,1,1,1,1,1,1,1,1,1,1,1,1,1,1,1,1,1,1,1,1,1"
dtnsim.node[6].app.start = "9,1,8,7,11,6,4,3,17,6,12,18,1,19,3,16,16,5,8,14,9,3,9,12,13,19,18,20,7,4,12,6,9,14,13,12,11,13,17,17,2,18,8,17,8,12,12,18,12,5,17,11,13,19,9,13,14,2,10,12,18,19,15,14,18,18,3,10,4,13,10,19,9,10,9,2,1,18,18,4,10,14,10,20,20,12,2,8,9,3,3,2,11,6,1,11,2,11,19,5"
dtnsim.node[6].app.destinationEid = "225,150,141,79,188,220,221,210,133,28,207,47,39,75,38,90,39,121,127,146,153,190,215,202,83,79,20,35,151,80,71,181,214,157,162,32,109,234,14,71,134,24,201,134,79,155,67,52,213,237,180,74,112,109,221,217,218,177,140,57,194,226,238,93,80,17,8,185,189,143,23,129,161,141,8,182,56,101,102,123,138,218,72,33,175,223,125,72,168,25,53,130,98,95,117,87,87,60,228,189"
dtnsim.node[6].app.size = "100,500,200,50,500,200,500,200,100,50,100,100,500,50,200,500,50,100,500,50,100,500,50,500,200,50,200,200,200,50,200,100,50,50,500,100,100,200,50,100,500,100,500,50,500,200,100,500,200,50,100,100,50,200,100,100,100,100,500,500,200,50,200,50,200,50,50,100,500,500,50,200,200,50,500,500,200,500,200,500,100,200,500,50,200,50,200,500,200,50,500,50,100,100,200,500,500,200,200,500"
        # Node 7 random traffic
dtnsim.node[7].app.enable = true
dtnsim.node[7].app.bundlesNumber = "1,1,1,1,1,1,1,1,1,1,1,1,1,1,1,1,1,1,1,1,1,1,1,1,1,1,1,1,1,1,1,1,1,1,1,1,1,1,1,1,1,1,1,1,1,1,1,1,1,1,1,1,1,1,1,1,1,1,1,1,1,1,1,1,1,1,1,1,1,1,1,1,1,1,1,1,1,1,1,1,1,1,1,1,1,1,1,1,1,1,1,1,1,1,1,1,1,1,1,1"
dtnsim.node[7].app.start = "19,5,9,19,10,10,2,7,17,10,18,11,2,20,13,11,2,7,12,10,6,18,19,1,3,19,9,10,15,1,18,1,19,13,9,6,3,6,17,10,1,17,9,3,17,10,7,15,4,3,10,20,14,15,7,7,5,1,5,16,2,13,15,14,3,17,17,12,17,14,16,18,15,19,14,11,10,5,10,12,7,17,17,10,10,6,2,3,2,5,7,15,6,10,18,7,16,5,3,8"
dtnsim.node[7].app.destinationEid = "86,44,110,118,237,74,101,158,133,86,157,126,175,239,212,216,71,203,43,183,21,129,172,95,85,218,133,180,10,44,113,71,230,88,52,96,60,50,212,147,170,143,101,169,224,205,180,66,33,156,181,173,31,194,48,25,89,91,113,8,117,135,159,167,115,6,37,46,18,227,165,110,193,194,145,171,103,34,64,141,5,164,124,53,96,120,39,121,52,170,31,136,66,50,215,163,18,121,119,92"
dtnsim.node[7].app.size = "50,500,200,200,50,500,100,50,500,500,200,50,100,500,100,500,200,500,200,200,200,50,100,100,200,500,500,50,500,50,100,500,500,50,200,200,50,50,500,50,200,500,100,500,500,200,50,200,50,50,100,500,200,100,500,200,500,100,500,50,500,50,100,50,100,200,100,50,500,500,50,50,50,500,100,200,100,100,50,500,50,500,100,50,500,100,50,500,500,100,100,500,200,100,50,200,200,500,200,200"
        # Node 8 random traffic
dtnsim.node[8].app.enable = true
dtnsim.node[8].app.bundlesNumber = "1,1,1,1,1,1,1,1,1,1,1,1,1,1,1,1,1,1,1,1,1,1,1,1,1,1,1,1,1,1,1,1,1,1,1,1,1,1,1,1,1,1,1,1,1,1,1,1,1,1,1,1,1,1,1,1,1,1,1,1,1,1,1,1,1,1,1,1,1,1,1,1,1,1,1,1,1,1,1,1,1,1,1,1,1,1,1,1,1,1,1,1,1,1,1,1,1,1,1,1"
dtnsim.node[8].app.start = "19,16,4,17,8,14,20,4,5,16,19,17,6,14,8,15,13,2,20,7,17,13,19,13,16,1,10,2,15,9,6,16,15,10,18,7,14,1,4,7,2,8,15,19,8,12,10,11,16,14,12,12,20,18,4,9,15,4,4,4,10,14,16,3,20,5,11,2,11,19,6,4,13,5,3,5,13,12,12,3,4,12,5,7,7,11,14,8,9,8,7,19,5,20,18,14,14,2,18,10"
dtnsim.node[8].app.destinationEid = "16,212,101,168,165,5,22,45,2,213,18,204,91,220,179,150,105,150,117,224,223,39,62,14,102,190,211,153,41,221,141,38,147,52,226,145,147,132,35,134,169,169,177,72,240,35,132,202,100,235,23,198,205,109,198,180,85,52,26,56,174,128,9,160,41,17,85,47,168,145,5,3,161,184,127,199,119,21,200,15,47,204,169,173,142,81,48,17,188,48,79,63,237,100,65,52,221,218,206,154"
dtnsim.node[8].app.size = "50,50,50,50,500,500,100,50,200,50,50,50,100,50,200,50,200,500,100,500,100,100,500,500,200,100,100,100,200,500,500,50,100,100,50,100,500,200,500,100,100,50,50,200,50,200,50,500,200,50,200,50,100,200,50,200,200,200,500,100,200,200,500,100,500,50,50,50,100,50,500,50,100,100,200,100,200,200,200,200,200,100,50,500,100,500,50,500,50,50,200,100,100,100,500,100,500,50,500,50"
        # Node 9 random traffic
dtnsim.node[9].app.enable = true
dtnsim.node[9].app.bundlesNumber = "1,1,1,1,1,1,1,1,1,1,1,1,1,1,1,1,1,1,1,1,1,1,1,1,1,1,1,1,1,1,1,1,1,1,1,1,1,1,1,1,1,1,1,1,1,1,1,1,1,1,1,1,1,1,1,1,1,1,1,1,1,1,1,1,1,1,1,1,1,1,1,1,1,1,1,1,1,1,1,1,1,1,1,1,1,1,1,1,1,1,1,1,1,1,1,1,1,1,1,1"
dtnsim.node[9].app.start = "16,3,13,6,8,10,7,17,10,8,13,14,15,2,7,7,14,13,16,20,1,6,9,6,7,15,3,14,2,3,18,3,2,17,5,16,12,9,3,5,16,9,7,2,20,11,17,20,9,3,5,1,13,6,2,4,14,3,7,20,6,14,6,9,6,3,10,2,7,4,12,8,11,16,3,16,16,6,3,8,10,17,9,5,11,5,4,17,1,3,10,14,11,12,5,17,7,5,14,20"
dtnsim.node[9].app.destinationEid = "190,239,63,129,82,8,161,227,231,128,142,169,84,20,192,151,137,94,164,28,157,163,162,129,207,209,4,20,63,130,186,124,238,97,235,235,21,99,66,235,142,194,225,99,79,127,98,176,210,234,63,233,85,56,144,113,176,53,97,109,213,82,227,26,183,164,100,10,155,179,144,132,224,237,237,178,27,49,236,122,191,142,220,150,220,69,60,210,15,58,224,236,51,222,238,77,117,35,225,225"
dtnsim.node[9].app.size = "500,200,200,500,500,50,100,50,500,100,500,200,50,500,100,500,100,500,500,200,50,100,500,100,50,50,100,50,100,50,500,50,50,200,500,50,500,100,50,50,200,200,200,50,200,500,500,50,100,50,100,50,200,100,100,200,200,200,200,50,500,50,500,50,50,100,200,200,50,100,100,50,500,50,100,200,100,200,200,100,200,100,500,500,50,200,200,200,500,50,100,500,100,50,50,100,100,50,50,100"
        # Node 10 random traffic
dtnsim.node[10].app.enable = true
dtnsim.node[10].app.bundlesNumber = "1,1,1,1,1,1,1,1,1,1,1,1,1,1,1,1,1,1,1,1,1,1,1,1,1,1,1,1,1,1,1,1,1,1,1,1,1,1,1,1,1,1,1,1,1,1,1,1,1,1,1,1,1,1,1,1,1,1,1,1,1,1,1,1,1,1,1,1,1,1,1,1,1,1,1,1,1,1,1,1,1,1,1,1,1,1,1,1,1,1,1,1,1,1,1,1,1,1,1,1"
dtnsim.node[10].app.start = "17,5,1,2,4,16,11,18,7,5,10,3,18,12,1,10,20,6,15,3,1,12,12,12,1,3,2,17,5,18,10,18,19,2,11,16,14,19,17,10,9,13,15,4,8,18,15,11,2,14,12,8,10,10,17,14,12,19,13,13,8,10,10,17,10,5,16,7,10,17,18,11,2,1,14,13,15,14,7,9,19,7,16,5,1,16,6,18,3,15,17,8,9,4,19,9,5,3,14,18"
dtnsim.node[10].app.destinationEid = "165,233,133,162,166,118,64,233,122,124,212,156,117,190,15,5,37,11,15,161,74,147,133,162,123,93,141,18,131,112,228,114,135,114,202,13,235,105,205,171,40,21,150,199,188,118,156,35,7,125,133,2,113,9,139,29,90,222,138,74,70,111,78,131,196,87,135,232,61,96,224,60,85,159,95,62,146,217,217,72,23,217,138,164,111,230,7,105,101,227,123,91,81,145,103,166,233,73,3,239"
dtnsim.node[10].app.size = "100,50,50,100,100,100,200,50,500,500,500,500,200,100,200,100,200,50,50,500,100,50,100,200,500,500,200,100,50,200,200,50,50,200,50,100,200,100,50,50,100,100,500,500,500,100,500,200,100,200,500,200,500,50,500,500,500,50,100,50,50,100,500,200,500,100,100,200,200,50,100,100,100,500,50,50,200,50,100,200,100,100,500,500,50,500,50,500,200,50,200,200,200,200,500,200,500,50,50,500"
        # Node 11 random traffic
dtnsim.node[11].app.enable = true
dtnsim.node[11].app.bundlesNumber = "1,1,1,1,1,1,1,1,1,1,1,1,1,1,1,1,1,1,1,1,1,1,1,1,1,1,1,1,1,1,1,1,1,1,1,1,1,1,1,1,1,1,1,1,1,1,1,1,1,1,1,1,1,1,1,1,1,1,1,1,1,1,1,1,1,1,1,1,1,1,1,1,1,1,1,1,1,1,1,1,1,1,1,1,1,1,1,1,1,1,1,1,1,1,1,1,1,1,1,1"
dtnsim.node[11].app.start = "9,18,1,11,17,14,9,17,11,9,7,5,5,4,1,3,19,1,17,15,5,13,12,12,14,5,14,12,12,14,9,1,10,20,13,8,16,10,9,10,12,5,3,12,1,11,10,6,6,7,17,13,12,20,3,15,9,12,12,15,6,5,13,3,20,17,16,5,4,13,2,4,20,20,8,1,5,2,1,2,15,9,20,8,17,1,18,1,16,11,8,11,2,1,3,10,14,3,20,16"
dtnsim.node[11].app.destinationEid = "111,79,183,81,42,121,222,156,36,183,218,185,36,162,29,10,188,151,222,142,132,139,19,159,24,238,21,228,20,207,174,117,79,101,49,124,88,114,160,20,136,28,42,148,13,199,159,204,123,78,164,2,42,199,57,3,19,21,156,240,189,122,4,80,162,160,114,68,8,36,118,167,153,211,133,120,53,193,195,151,108,19,18,191,203,46,152,158,200,180,159,225,67,131,37,218,182,61,25,76"
dtnsim.node[11].app.size = "200,50,100,500,50,50,100,100,50,50,50,500,200,500,100,50,500,100,50,100,200,500,50,500,100,50,50,100,200,50,500,100,100,500,500,500,100,500,100,100,50,200,50,500,50,100,100,200,100,500,100,50,100,100,50,50,100,50,500,200,50,100,50,200,500,200,50,100,50,100,50,100,500,100,200,500,500,100,100,100,50,200,200,200,100,50,50,50,200,50,50,100,200,200,50,100,200,200,200,200"
        # Node 12 random traffic
dtnsim.node[12].app.enable = true
dtnsim.node[12].app.bundlesNumber = "1,1,1,1,1,1,1,1,1,1,1,1,1,1,1,1,1,1,1,1,1,1,1,1,1,1,1,1,1,1,1,1,1,1,1,1,1,1,1,1,1,1,1,1,1,1,1,1,1,1,1,1,1,1,1,1,1,1,1,1,1,1,1,1,1,1,1,1,1,1,1,1,1,1,1,1,1,1,1,1,1,1,1,1,1,1,1,1,1,1,1,1,1,1,1,1,1,1,1,1"
dtnsim.node[12].app.start = "8,1,18,10,19,11,20,18,15,10,19,19,11,2,9,18,10,16,8,8,13,2,17,15,19,13,5,6,13,9,17,16,1,5,11,10,10,6,7,3,15,18,6,6,11,4,20,9,5,17,5,3,16,19,11,3,1,9,4,10,17,1,18,3,12,10,14,11,11,3,10,10,6,9,14,17,6,2,7,16,4,1,20,14,15,6,6,6,16,19,3,9,19,4,13,5,6,6,4,7"
dtnsim.node[12].app.destinationEid = "190,159,238,70,46,240,9,26,98,81,153,3,224,124,164,118,123,211,57,165,81,87,237,26,16,237,59,39,138,147,88,39,113,69,16,2,104,238,61,156,62,210,3,223,222,95,147,212,84,124,201,43,127,9,101,7,198,237,159,73,32,6,100,117,78,79,215,130,86,239,46,86,116,162,141,96,200,202,62,6,102,3,131,149,149,123,81,144,188,208,179,78,66,153,240,196,237,96,177,98"
dtnsim.node[12].app.size = "50,50,200,50,200,50,500,200,100,500,200,50,50,50,500,100,500,200,50,200,500,100,100,200,50,100,100,200,200,50,200,500,100,200,50,50,200,100,50,500,500,50,100,200,100,50,100,100,200,100,200,200,500,50,50,50,200,200,500,500,100,100,100,100,500,500,100,50,200,500,500,50,500,500,500,100,500,200,50,500,200,100,50,50,500,50,50,500,500,200,50,500,200,100,200,50,100,500,50,500"
        # Node 13 random traffic
dtnsim.node[13].app.enable = true
dtnsim.node[13].app.bundlesNumber = "1,1,1,1,1,1,1,1,1,1,1,1,1,1,1,1,1,1,1,1,1,1,1,1,1,1,1,1,1,1,1,1,1,1,1,1,1,1,1,1,1,1,1,1,1,1,1,1,1,1,1,1,1,1,1,1,1,1,1,1,1,1,1,1,1,1,1,1,1,1,1,1,1,1,1,1,1,1,1,1,1,1,1,1,1,1,1,1,1,1,1,1,1,1,1,1,1,1,1,1"
dtnsim.node[13].app.start = "1,6,10,4,6,4,6,8,7,18,6,18,1,6,4,7,13,15,13,1,12,8,20,16,11,17,3,8,9,16,2,1,11,10,19,14,9,14,1,17,7,10,7,18,3,1,16,14,20,14,19,4,9,11,17,15,5,13,18,18,20,7,3,12,10,3,16,6,5,9,12,15,10,2,20,11,13,18,9,6,17,10,13,13,13,20,2,1,5,2,8,16,8,16,17,19,4,2,7,4"
dtnsim.node[13].app.destinationEid = "59,167,235,20,128,184,1,233,68,52,12,10,153,74,192,228,11,30,164,205,46,218,106,112,4,93,142,190,167,87,151,232,197,105,55,193,158,66,222,194,228,160,240,21,26,229,26,149,140,89,71,86,221,189,108,236,12,36,59,100,195,118,128,68,204,190,159,6,156,45,185,85,168,50,4,131,143,28,224,206,28,173,45,239,129,55,84,236,187,94,103,190,150,201,173,165,87,65,21,122"
dtnsim.node[13].app.size = "100,500,50,500,200,50,50,50,100,100,200,50,50,50,100,500,50,500,200,500,100,100,500,200,100,50,50,200,500,50,50,100,200,50,50,500,200,200,100,50,200,200,200,200,50,200,50,500,100,500,500,500,100,50,500,100,500,200,100,100,200,100,500,100,200,50,100,100,200,100,100,500,200,50,500,500,100,200,500,500,200,100,50,500,50,50,200,100,100,50,50,500,200,500,100,100,50,50,200,50"
        # Node 14 random traffic
dtnsim.node[14].app.enable = true
dtnsim.node[14].app.bundlesNumber = "1,1,1,1,1,1,1,1,1,1,1,1,1,1,1,1,1,1,1,1,1,1,1,1,1,1,1,1,1,1,1,1,1,1,1,1,1,1,1,1,1,1,1,1,1,1,1,1,1,1,1,1,1,1,1,1,1,1,1,1,1,1,1,1,1,1,1,1,1,1,1,1,1,1,1,1,1,1,1,1,1,1,1,1,1,1,1,1,1,1,1,1,1,1,1,1,1,1,1,1"
dtnsim.node[14].app.start = "2,5,10,18,7,18,7,11,15,18,13,3,20,14,1,12,10,10,15,17,16,1,2,9,20,1,9,3,19,15,11,4,11,16,4,8,20,9,6,10,4,4,11,17,6,3,2,19,9,16,6,2,2,15,19,6,4,15,13,2,12,2,18,1,10,7,2,19,8,9,1,9,6,6,2,11,12,12,15,3,3,7,18,14,9,14,12,11,7,9,1,2,1,2,11,8,14,1,10,14"
dtnsim.node[14].app.destinationEid = "96,56,191,6,216,13,107,147,171,177,60,206,208,3,145,149,197,45,133,20,147,207,100,179,199,186,42,209,131,2,153,105,9,73,76,122,213,92,171,181,108,228,106,230,170,174,177,100,216,171,66,195,191,162,71,169,109,10,119,144,24,43,143,70,144,201,63,132,164,215,183,13,230,81,230,172,88,105,62,19,127,39,99,93,51,226,57,156,44,49,81,232,128,118,150,184,95,181,47,29"
dtnsim.node[14].app.size = "500,50,200,500,200,100,500,200,50,500,50,200,200,100,100,500,200,100,100,500,500,500,200,200,500,50,200,500,200,200,500,500,200,50,500,100,200,50,50,100,50,100,200,50,200,500,100,100,50,50,100,200,500,100,200,500,200,100,500,50,500,200,200,500,100,200,50,200,200,200,100,50,200,200,200,100,500,50,50,500,500,200,50,500,200,500,100,100,100,50,50,500,500,200,200,200,100,50,50,50"
        # Node 15 random traffic
dtnsim.node[15].app.enable = true
dtnsim.node[15].app.bundlesNumber = "1,1,1,1,1,1,1,1,1,1,1,1,1,1,1,1,1,1,1,1,1,1,1,1,1,1,1,1,1,1,1,1,1,1,1,1,1,1,1,1,1,1,1,1,1,1,1,1,1,1,1,1,1,1,1,1,1,1,1,1,1,1,1,1,1,1,1,1,1,1,1,1,1,1,1,1,1,1,1,1,1,1,1,1,1,1,1,1,1,1,1,1,1,1,1,1,1,1,1,1"
dtnsim.node[15].app.start = "10,3,17,5,1,13,14,10,6,3,10,1,18,7,11,4,16,17,3,7,7,11,14,20,5,18,15,2,20,13,5,12,12,3,5,17,16,20,4,6,19,9,9,9,4,3,15,2,15,16,7,7,9,19,9,6,20,7,14,3,16,11,18,10,17,3,5,11,14,18,7,20,14,17,17,15,2,6,7,17,18,9,13,15,1,11,17,5,9,2,19,16,17,8,3,20,18,13,6,5"
dtnsim.node[15].app.destinationEid = "145,61,228,165,74,53,226,157,111,30,224,198,95,157,50,116,16,205,28,114,110,127,120,173,6,119,133,225,229,155,9,238,121,124,156,53,149,152,103,130,154,191,229,95,89,103,235,38,204,224,119,174,12,174,71,148,220,112,86,173,102,52,221,152,42,187,25,160,179,163,59,179,12,198,197,47,136,96,46,112,23,72,31,199,29,92,42,78,56,57,62,217,1,181,33,72,82,45,16,189"
dtnsim.node[15].app.size = "50,200,100,50,100,200,200,200,100,500,200,500,100,50,100,50,200,500,100,200,50,500,500,500,200,500,500,500,100,200,50,100,50,100,500,200,50,500,100,50,100,500,200,500,200,100,500,100,200,200,200,100,100,500,100,500,50,200,100,50,100,500,50,500,200,50,500,50,50,100,50,500,500,50,50,100,100,50,50,500,100,200,500,50,50,500,500,50,100,500,100,200,50,50,500,500,500,500,100,500"
        # Node 16 random traffic
dtnsim.node[16].app.enable = true
dtnsim.node[16].app.bundlesNumber = "1,1,1,1,1,1,1,1,1,1,1,1,1,1,1,1,1,1,1,1,1,1,1,1,1,1,1,1,1,1,1,1,1,1,1,1,1,1,1,1,1,1,1,1,1,1,1,1,1,1,1,1,1,1,1,1,1,1,1,1,1,1,1,1,1,1,1,1,1,1,1,1,1,1,1,1,1,1,1,1,1,1,1,1,1,1,1,1,1,1,1,1,1,1,1,1,1,1,1,1"
dtnsim.node[16].app.start = "2,3,5,8,5,17,8,13,6,4,9,7,1,14,13,9,15,4,11,13,10,13,10,18,1,14,4,16,17,6,2,1,14,2,2,14,17,17,7,4,4,14,3,12,15,1,13,20,13,3,17,14,3,5,3,3,17,7,18,18,14,7,11,20,9,17,6,11,16,3,4,7,3,8,19,6,7,3,8,18,13,19,1,4,18,7,20,10,6,13,9,9,5,6,1,17,11,8,13,13"
dtnsim.node[16].app.destinationEid = "144,37,117,195,112,227,216,185,78,115,4,193,32,30,107,115,102,108,184,67,84,67,237,3,61,182,12,239,88,150,222,209,233,196,50,77,110,237,178,192,70,84,53,107,71,161,204,75,210,109,46,9,130,9,124,114,32,5,164,85,111,5,225,227,227,67,236,70,70,124,211,83,223,194,59,201,27,36,195,143,44,213,127,192,36,158,218,86,45,24,194,3,227,72,80,176,219,216,84,72"
dtnsim.node[16].app.size = "500,100,500,200,500,100,500,50,500,200,100,500,200,200,200,50,200,50,200,200,500,200,50,500,500,500,100,200,50,100,200,50,500,500,200,100,500,100,200,200,500,200,200,500,50,200,200,500,500,500,200,500,50,500,50,100,500,50,500,50,200,500,200,50,500,100,100,200,100,200,100,500,200,200,50,50,50,100,200,200,200,500,200,50,500,200,100,100,200,500,50,100,100,500,50,50,200,200,100,100"
        # Node 17 random traffic
dtnsim.node[17].app.enable = true
dtnsim.node[17].app.bundlesNumber = "1,1,1,1,1,1,1,1,1,1,1,1,1,1,1,1,1,1,1,1,1,1,1,1,1,1,1,1,1,1,1,1,1,1,1,1,1,1,1,1,1,1,1,1,1,1,1,1,1,1,1,1,1,1,1,1,1,1,1,1,1,1,1,1,1,1,1,1,1,1,1,1,1,1,1,1,1,1,1,1,1,1,1,1,1,1,1,1,1,1,1,1,1,1,1,1,1,1,1,1"
dtnsim.node[17].app.start = "11,10,10,14,1,17,9,20,14,18,6,17,18,9,17,16,5,8,4,11,16,12,20,12,15,8,12,10,4,11,14,5,11,6,20,18,11,13,1,9,5,7,9,10,14,9,13,11,15,14,1,19,19,6,7,10,19,6,4,19,8,9,13,17,4,5,10,19,18,9,13,3,19,17,16,6,11,4,5,7,5,9,15,9,9,7,7,6,19,3,7,6,9,14,5,2,12,11,19,2"
dtnsim.node[17].app.destinationEid = "138,35,97,160,60,223,237,218,171,67,90,131,141,115,64,156,161,83,147,69,46,20,117,152,193,7,55,86,59,187,229,32,122,31,132,167,22,159,15,238,128,194,149,9,194,25,205,235,180,101,190,148,12,23,132,97,8,236,8,122,115,95,63,153,41,34,124,39,236,86,103,131,163,163,116,50,226,210,219,169,223,59,64,73,28,131,139,171,60,182,96,125,231,20,9,193,132,153,166,185"
dtnsim.node[17].app.size = "100,100,500,100,100,500,100,100,200,500,200,500,100,50,500,500,50,500,200,50,500,100,50,500,500,200,100,500,100,200,500,200,100,50,500,200,500,500,200,100,500,50,50,50,50,200,100,50,100,200,500,200,500,100,100,50,200,100,50,500,200,200,200,50,500,50,100,50,100,100,500,500,500,200,100,200,100,200,50,100,200,100,200,500,200,500,200,50,50,200,50,200,500,200,200,100,50,50,50,200"
        # Node 18 random traffic
dtnsim.node[18].app.enable = true
dtnsim.node[18].app.bundlesNumber = "1,1,1,1,1,1,1,1,1,1,1,1,1,1,1,1,1,1,1,1,1,1,1,1,1,1,1,1,1,1,1,1,1,1,1,1,1,1,1,1,1,1,1,1,1,1,1,1,1,1,1,1,1,1,1,1,1,1,1,1,1,1,1,1,1,1,1,1,1,1,1,1,1,1,1,1,1,1,1,1,1,1,1,1,1,1,1,1,1,1,1,1,1,1,1,1,1,1,1,1"
dtnsim.node[18].app.start = "14,4,18,9,10,19,18,12,3,7,9,18,10,13,4,17,20,7,3,6,6,8,19,13,1,17,12,14,16,10,19,18,20,9,12,18,8,12,5,3,16,18,4,14,3,2,16,12,1,4,7,18,3,4,7,17,20,6,18,6,18,19,14,11,12,16,9,13,4,5,5,9,2,3,1,6,7,1,19,1,1,4,15,3,10,1,16,5,15,5,16,5,5,5,20,8,3,13,1,3"
dtnsim.node[18].app.destinationEid = "201,27,44,183,34,12,164,68,239,213,118,114,32,197,160,170,63,194,78,156,227,192,144,153,210,172,190,230,125,45,63,228,47,50,205,226,194,65,67,139,181,193,54,182,170,68,84,22,151,33,68,220,156,39,55,180,101,1,65,1,185,227,78,168,198,219,211,170,125,11,11,71,112,236,60,224,155,161,118,233,125,127,116,99,33,40,159,98,215,73,35,9,161,90,174,126,166,197,17,240"
dtnsim.node[18].app.size = "50,50,500,500,100,100,500,100,500,100,100,100,100,200,50,500,50,500,50,500,500,500,50,100,100,100,100,500,100,500,500,200,100,100,50,100,50,50,500,500,100,500,50,500,500,50,100,50,200,200,200,500,500,50,500,500,200,500,500,500,500,200,100,100,500,50,200,200,500,100,100,100,100,100,100,500,200,500,500,100,50,100,500,200,100,100,50,500,50,200,100,100,100,100,50,50,200,50,200,50"
        # Node 19 random traffic
dtnsim.node[19].app.enable = true
dtnsim.node[19].app.bundlesNumber = "1,1,1,1,1,1,1,1,1,1,1,1,1,1,1,1,1,1,1,1,1,1,1,1,1,1,1,1,1,1,1,1,1,1,1,1,1,1,1,1,1,1,1,1,1,1,1,1,1,1,1,1,1,1,1,1,1,1,1,1,1,1,1,1,1,1,1,1,1,1,1,1,1,1,1,1,1,1,1,1,1,1,1,1,1,1,1,1,1,1,1,1,1,1,1,1,1,1,1,1"
dtnsim.node[19].app.start = "18,9,2,4,20,15,17,8,2,11,13,16,12,4,3,14,13,7,8,1,20,1,6,3,2,16,3,10,1,14,11,1,8,17,18,6,8,16,1,2,20,10,12,9,15,16,17,9,13,18,8,13,11,13,20,16,13,18,9,16,20,16,15,19,16,15,14,19,17,14,2,3,4,19,15,10,15,14,19,14,19,19,3,8,3,3,9,5,18,16,18,6,12,10,8,11,1,18,8,4"
dtnsim.node[19].app.destinationEid = "145,228,82,114,53,124,50,83,170,214,68,153,176,203,31,218,100,110,205,192,137,181,100,41,37,4,62,55,7,169,188,58,226,129,216,222,194,70,121,183,33,201,171,239,55,139,33,183,156,105,48,73,74,90,122,186,120,229,88,100,145,236,34,98,86,28,151,105,51,180,180,9,122,14,109,235,90,176,188,20,65,160,120,56,216,139,144,101,61,124,70,62,96,8,128,205,207,151,179,81"
dtnsim.node[19].app.size = "100,100,500,50,100,500,100,500,100,500,50,100,50,200,50,500,50,100,500,200,100,500,500,200,200,200,500,100,100,50,100,50,500,50,500,200,500,100,200,200,200,200,100,100,50,500,200,200,200,50,100,200,500,500,200,50,500,50,100,200,50,100,500,200,100,200,50,50,100,200,100,50,50,100,50,50,200,100,500,100,50,500,500,100,500,500,50,50,50,100,50,100,100,50,50,500,100,200,100,50"
        # Node 20 random traffic
dtnsim.node[20].app.enable = true
dtnsim.node[20].app.bundlesNumber = "1,1,1,1,1,1,1,1,1,1,1,1,1,1,1,1,1,1,1,1,1,1,1,1,1,1,1,1,1,1,1,1,1,1,1,1,1,1,1,1,1,1,1,1,1,1,1,1,1,1,1,1,1,1,1,1,1,1,1,1,1,1,1,1,1,1,1,1,1,1,1,1,1,1,1,1,1,1,1,1,1,1,1,1,1,1,1,1,1,1,1,1,1,1,1,1,1,1,1,1"
dtnsim.node[20].app.start = "9,8,11,9,6,5,16,3,16,19,9,20,9,2,12,13,12,14,1,16,14,18,13,10,8,14,13,8,16,7,4,12,11,19,13,11,1,10,5,17,6,15,17,2,2,2,2,19,12,2,12,10,9,1,18,10,8,9,20,11,8,9,11,6,14,2,15,3,4,5,1,19,11,4,8,2,20,11,13,11,14,13,6,1,3,17,9,17,8,8,12,12,18,18,19,8,2,16,15,19"
dtnsim.node[20].app.destinationEid = "105,232,179,83,116,148,234,132,32,226,198,3,203,141,213,11,168,120,66,14,109,30,183,26,26,122,2,214,16,201,225,120,41,214,16,44,55,117,37,55,128,238,162,212,79,18,143,78,69,122,143,81,11,90,110,102,26,204,44,137,47,116,171,84,50,146,147,107,17,226,202,226,112,157,208,92,6,128,238,207,81,86,30,111,33,191,65,70,78,140,107,224,192,181,131,129,198,104,19,99"
dtnsim.node[20].app.size = "100,100,50,100,100,50,500,50,200,200,500,200,500,50,200,500,200,200,200,500,50,500,200,100,100,200,200,100,200,100,50,50,50,500,100,500,500,200,500,200,200,100,200,50,500,100,500,100,100,500,500,500,200,500,200,50,100,100,500,200,200,100,500,500,200,50,100,200,500,500,50,100,50,500,50,100,500,100,50,100,500,500,50,500,100,100,50,50,50,50,50,100,100,100,500,50,100,500,50,200"
        # Node 21 random traffic
dtnsim.node[21].app.enable = true
dtnsim.node[21].app.bundlesNumber = "1,1,1,1,1,1,1,1,1,1,1,1,1,1,1,1,1,1,1,1,1,1,1,1,1,1,1,1,1,1,1,1,1,1,1,1,1,1,1,1,1,1,1,1,1,1,1,1,1,1,1,1,1,1,1,1,1,1,1,1,1,1,1,1,1,1,1,1,1,1,1,1,1,1,1,1,1,1,1,1,1,1,1,1,1,1,1,1,1,1,1,1,1,1,1,1,1,1,1,1"
dtnsim.node[21].app.start = "16,4,4,8,7,12,14,3,3,7,13,1,5,12,5,6,4,17,15,10,18,12,7,10,5,2,11,10,18,8,19,7,20,2,12,17,9,14,11,16,7,18,16,10,15,9,7,16,4,9,3,16,12,14,7,10,1,6,9,14,4,20,2,14,10,6,16,15,15,6,5,4,19,4,16,7,15,13,13,15,1,12,4,12,2,18,16,20,11,20,9,6,11,16,10,12,10,15,10,10"
dtnsim.node[21].app.destinationEid = "159,68,240,118,27,51,189,176,135,148,80,96,214,2,189,218,111,9,221,97,149,144,163,78,5,161,143,41,114,211,39,169,223,203,105,207,217,181,170,4,60,164,145,33,132,69,155,22,38,86,229,112,42,3,223,75,148,147,126,31,57,81,156,15,224,194,69,142,197,170,230,92,132,79,81,95,16,216,105,185,139,14,233,132,79,100,136,3,54,81,128,16,128,198,165,153,162,6,136,16"
dtnsim.node[21].app.size = "500,200,500,50,500,100,200,50,200,50,200,100,100,100,200,100,50,50,500,500,50,50,200,100,50,50,200,200,500,200,100,50,100,100,50,500,500,100,200,100,100,100,200,100,50,200,50,100,200,200,100,50,500,50,200,500,500,200,500,100,50,50,200,100,50,500,500,100,50,500,100,100,100,100,500,100,50,200,100,200,200,200,500,500,100,500,200,500,200,100,200,100,100,200,50,200,100,50,100,200"
        # Node 22 random traffic
dtnsim.node[22].app.enable = true