[General]
network = src.dtnsim										
repeat = 1
allow-object-stealing-on-deletion = true

# Simulation end time
sim-time-limit = 84600s

# Nodes quantity (identifiers (EiDs) matches their index, EiD=0 is ignored)			
dtnsim.nodesNumber = 360
dtnsim.node[*].icon = "satellite"

# Nodes's failure rates
dtnsim.node[*].fault.enable = true
dtnsim.node[*].fault.meanTTF = 90s
dtnsim.node[*].fault.meanTTR = 10s

# Mobility
dtnsim.node[*].hasMobility = true
dtnsim.node[*].noradModule.satIndex = parentIndex()
dtnsim.node[*].noradModule.satName = "sat"
**.updateInterval = 20s
**.numOfSats = 360
**.satPerPlane = 18
**.altitude = 540
**.planes = 20
**.phaseOffset = 11

dtnsim.node[*].dtn.routing = "antop"
dtnsim.node[*].dtn.printRoutingDebug = true

# --- Random Traffic Configuration ---
# Node 1 random traffic
dtnsim.node[1].app.enable = true
dtnsim.node[1].app.bundlesNumber = "1,1,1,1,1,1,1,1,1,1,1,1,1,1,1,1,1,1,1,1,1,1,1,1,1,1,1,1,1,1,1,1,1,1,1,1,1,1,1,1,1,1,1,1,1,1,1,1,1,1,1,1,1,1,1,1,1,1,1,1,1,1,1,1,1,1,1,1,1,1,1,1,1,1,1,1,1,1,1,1,1,1,1,1,1,1,1,1,1,1,1,1,1,1,1,1,1,1,1,1"
dtnsim.node[1].app.start = "3,7,5,18,5,5,9,12,17,8,13,3,12,2,12,7,5,13,1,9,15,10,8,7,7,19,8,12,8,7,5,9,8,1,19,10,2,12,8,4,7,17,3,20,13,3,1,14,18,5,17,18,15,12,7,9,9,5,17,19,5,10,5,16,2,5,10,15,14,11,11,6,20,7,5,14,16,15,2,18,1,18,9,16,4,12,16,13,7,12,16,14,15,20,10,12,4,18,20,2"
dtnsim.node[1].app.destinationEid = "97,177,23,219,15,273,185,62,186,148,240,318,304,244,187,83,58,68,360,277,269,17,174,212,328,17,105,350,94,147,16,78,186,230,293,219,40,164,76,339,292,265,295,174,78,89,87,26,88,346,303,278,301,104,210,329,28,268,353,337,216,339,58,234,351,157,118,358,329,224,265,44,72,204,235,235,328,322,326,128,273,282,137,219,175,327,89,92,213,346,275,17,355,320,330,181,207,96,276,80"
dtnsim.node[1].app.size = "200,500,500,100,100,500,100,100,500,100,200,500,50,500,100,50,500,200,100,200,100,100,100,100,50,50,50,500,100,100,50,500,200,500,200,100,100,50,50,200,500,200,500,200,100,500,50,50,200,200,200,200,200,500,100,500,50,200,500,500,500,50,200,50,500,500,50,500,50,200,200,200,200,50,200,50,500,200,200,500,200,200,500,500,50,500,50,200,100,200,500,100,500,50,50,50,200,50,500,50"
        # Node 2 random traffic
dtnsim.node[2].app.enable = true
dtnsim.node[2].app.bundlesNumber = "1,1,1,1,1,1,1,1,1,1,1,1,1,1,1,1,1,1,1,1,1,1,1,1,1,1,1,1,1,1,1,1,1,1,1,1,1,1,1,1,1,1,1,1,1,1,1,1,1,1,1,1,1,1,1,1,1,1,1,1,1,1,1,1,1,1,1,1,1,1,1,1,1,1,1,1,1,1,1,1,1,1,1,1,1,1,1,1,1,1,1,1,1,1,1,1,1,1,1,1"
dtnsim.node[2].app.start = "19,7,1,4,8,5,15,16,11,12,18,4,16,15,14,16,19,3,17,15,6,6,15,9,2,7,10,8,3,15,5,15,1,14,18,10,6,19,13,12,11,3,4,10,6,20,15,5,17,6,10,3,9,14,10,5,5,20,14,2,3,7,15,5,20,9,17,17,2,11,4,1,2,20,19,12,16,19,20,8,10,9,1,20,2,5,17,2,4,4,16,19,15,15,2,8,20,14,2,9"
dtnsim.node[2].app.destinationEid = "155,256,126,295,65,227,321,246,161,135,345,156,336,345,5,250,5,56,279,62,165,321,275,133,115,359,316,274,125,311,201,280,339,143,289,140,230,82,135,1,134,41,320,256,309,229,37,27,295,153,257,156,64,346,305,72,171,86,39,68,176,179,350,116,161,359,351,24,39,121,188,109,95,204,87,100,327,86,101,334,113,291,294,326,138,331,242,74,12,4,230,160,121,3,203,249,15,192,74,235"
dtnsim.node[2].app.size = "200,500,50,100,200,100,200,200,100,100,200,200,50,500,500,200,100,100,500,200,100,50,200,100,200,50,500,50,500,200,50,100,100,50,200,200,100,200,200,200,100,200,200,500,200,200,200,200,500,500,500,50,50,500,200,200,100,50,50,50,100,200,500,50,100,50,100,500,200,50,200,200,100,500,100,200,100,500,500,100,50,500,500,100,500,100,200,50,500,50,100,100,50,50,200,50,500,50,50,100"
        # Node 3 random traffic
dtnsim.node[3].app.enable = true
dtnsim.node[3].app.bundlesNumber = "1,1,1,1,1,1,1,1,1,1,1,1,1,1,1,1,1,1,1,1,1,1,1,1,1,1,1,1,1,1,1,1,1,1,1,1,1,1,1,1,1,1,1,1,1,1,1,1,1,1,1,1,1,1,1,1,1,1,1,1,1,1,1,1,1,1,1,1,1,1,1,1,1,1,1,1,1,1,1,1,1,1,1,1,1,1,1,1,1,1,1,1,1,1,1,1,1,1,1,1"
dtnsim.node[3].app.start = "8,17,19,14,5,5,19,16,5,10,7,14,14,8,11,19,11,19,12,3,2,5,13,19,3,19,19,12,9,12,3,7,6,1,16,17,11,9,9,16,3,5,1,12,17,15,9,3,15,3,16,20,16,3,20,1,7,3,13,1,4,18,15,1,16,12,19,4,14,11,15,4,2,18,20,16,8,8,5,18,17,10,19,3,13,19,19,11,10,3,18,14,5,19,6,8,19,15,4,3"
dtnsim.node[3].app.destinationEid = "223,315,216,206,329,91,181,226,42,15,161,143,103,92,287,338,161,189,320,341,208,137,301,129,143,108,69,116,68,330,220,240,262,100,49,237,202,224,103,71,237,81,94,45,165,249,24,1,158,79,81,257,236,296,19,249,18,221,313,288,68,13,93,124,211,181,288,254,212,35,43,236,323,147,91,92,103,5,283,274,35,51,39,267,116,329,250,27,132,314,110,324,29,58,351,153,86,111,39,267"
dtnsim.node[3].app.size = "100,100,100,500,200,50,500,100,200,200,100,500,50,200,200,200,500,500,50,100,200,50,50,100,200,100,50,100,50,100,50,200,200,500,50,50,100,50,500,500,50,200,100,200,200,500,100,100,500,500,50,100,500,50,100,50,100,200,200,50,200,50,200,500,500,500,50,50,50,200,50,500,50,500,200,50,500,50,200,500,50,100,100,500,100,200,500,50,500,50,100,500,200,200,200,100,200,100,200,50"
        # Node 4 random traffic
dtnsim.node[4].app.enable = true
dtnsim.node[4].app.bundlesNumber = "1,1,1,1,1,1,1,1,1,1,1,1,1,1,1,1,1,1,1,1,1,1,1,1,1,1,1,1,1,1,1,1,1,1,1,1,1,1,1,1,1,1,1,1,1,1,1,1,1,1,1,1,1,1,1,1,1,1,1,1,1,1,1,1,1,1,1,1,1,1,1,1,1,1,1,1,1,1,1,1,1,1,1,1,1,1,1,1,1,1,1,1,1,1,1,1,1,1,1,1"
dtnsim.node[4].app.start = "4,6,6,4,5,4,3,14,12,12,3,11,8,10,14,5,4,17,18,9,1,16,13,6,20,2,2,4,4,2,14,15,19,12,11,8,20,11,15,8,12,10,19,2,7,13,3,9,7,18,16,19,3,13,16,19,20,12,2,2,3,7,19,20,3,9,5,17,19,9,10,18,10,9,1,11,14,11,5,2,8,10,1,20,16,2,1,4,13,6,15,10,14,8,3,5,2,17,18,9"
dtnsim.node[4].app.destinationEid = "240,184,206,282,239,144,99,200,304,322,291,153,2,357,303,266,121,273,281,211,240,178,347,205,122,157,114,313,60,289,85,206,209,187,203,309,125,156,198,212,189,116,74,100,166,114,137,310,185,247,139,204,121,25,245,188,311,145,347,315,147,308,220,37,259,50,25,49,331,114,146,209,128,26,174,290,45,221,249,100,106,145,194,148,7,66,261,79,199,277,174,296,74,17,75,134,95,179,60,330"
dtnsim.node[4].app.size = "50,100,50,500,50,200,500,500,500,200,500,100,50,100,500,50,200,50,500,50,500,200,50,100,50,50,200,100,500,100,500,100,200,500,50,500,50,100,200,100,200,500,500,100,50,200,500,200,500,100,50,200,100,50,50,100,100,500,50,50,100,200,500,50,500,200,50,100,200,500,500,50,200,500,200,500,50,50,50,100,100,500,200,200,50,100,100,500,500,50,200,50,500,500,50,50,500,500,500,100"
        # Node 5 random traffic
dtnsim.node[5].app.enable = true
dtnsim.node[5].app.bundlesNumber = "1,1,1,1,1,1,1,1,1,1,1,1,1,1,1,1,1,1,1,1,1,1,1,1,1,1,1,1,1,1,1,1,1,1,1,1,1,1,1,1,1,1,1,1,1,1,1,1,1,1,1,1,1,1,1,1,1,1,1,1,1,1,1,1,1,1,1,1,1,1,1,1,1,1,1,1,1,1,1,1,1,1,1,1,1,1,1,1,1,1,1,1,1,1,1,1,1,1,1,1"
dtnsim.node[5].app.start = "3,14,6,7,16,8,11,7,16,16,8,6,18,10,10,10,14,1,3,18,11,1,7,13,2,6,19,1,8,5,9,3,15,12,19,20,14,4,6,14,13,16,16,1,7,20,4,8,11,13,14,11,3,8,18,11,12,20,17,11,2,9,4,17,8,13,18,18,17,13,3,7,16,7,19,2,3,10,13,5,1,17,15,9,10,8,18,7,11,18,9,13,2,12,14,12,20,12,18,4"
dtnsim.node[5].app.destinationEid = "212,219,268,326,44,136,44,302,360,330,322,17,237,307,307,170,110,124,170,113,169,75,272,291,232,134,272,184,45,59,192,176,252,165,6,72,301,335,281,332,27,32,12,76,88,85,104,357,69,174,231,10,346,150,122,63,50,267,158,73,4,354,241,336,44,150,11,277,161,315,120,304,234,227,313,2,185,286,88,291,186,139,315,84,126,71,340,120,34,149,188,44,59,31,60,56,193,72,239,13"
dtnsim.node[5].app.size = "200,500,100,100,500,100,500,200,100,50,200,50,100,50,100,50,500,200,100,200,50,50,500,50,100,100,100,500,500,200,200,200,50,200,50,50,100,500,500,50,500,50,100,500,500,200,50,50,100,500,200,100,500,50,200,200,200,500,100,500,50,200,50,500,500,200,50,200,50,100,500,50,50,50,100,200,100,50,200,500,100,100,100,500,100,100,100,500,100,100,500,500,50,100,200,500,200,50,50,50"
        # Node 6 random traffic
dtnsim.node[6].app.enable = true
dtnsim.node[6].app.bundlesNumber = "1,1,1,1,1,1,1,1,1,1,1,1,1,1,1,1,1,1,1,1,1,1,1,1,1,1,1,1,1,1,1,1,1,1,1,1,1,1,1,1,1,1,1,1,1,1,1,1,1,1,1,1,1,1,1,1,1,1,1,1,1,1,1,1,1,1,1,1,1,1,1,1,1,1,1,1,1,1,1,1,1,1,1,1,1,1,1,1,1,1,1,1,1,1,1,1,1,1,1,1"
dtnsim.node[6].app.start = "13,1,4,5,12,20,7,1,15,20,2,4,14,16,5,1,12,13,20,11,7,3,10,12,2,7,10,16,12,4,17,9,20,13,3,14,1,20,14,18,1,10,2,16,14,11,2,14,8,12,1,12,6,7,20,2,11,15,9,15,17,1,9,7,11,12,18,5,5,18,7,20,9,3,3,10,6,7,2,9,11,10,2,1,10,13,11,11,14,20,6,2,12,13,13,2,12,14,9,4"
dtnsim.node[6].app.destinationEid = "185,343,263,157,134,89,329,301,104,232,328,315,315,124,30,212,105,1,262,176,179,87,116,217,31,102,32,10,83,202,211,235,334,284,83,25,357,311,63,136,247,66,198,43,158,133,322,302,306,126,117,326,285,67,167,343,57,346,229,150,217,327,94,183,25,330,34,224,146,338,289,116,148,42,229,351,156,45,334,230,168,199,119,296,295,67,192,271,189,97,95,265,350,338,297,100,300,167,290,202"
dtnsim.node[6].app.size = "50,500,500,100,200,100,50,50,200,50,100,200,100,500,100,50,500,200,100,200,100,200,500,50,50,500,200,500,100,500,50,200,100,500,200,50,500,200,50,100,500,50,500,200,50,50,500,500,50,50,200,200,50,500,100,500,200,100,50,500,50,50,500,100,200,100,500,200,100,200,100,500,100,50,200,500,500,50,200,100,100,200,50,200,50,500,100,500,200,200,200,50,500,50,100,200,100,100,50,50"
        # Node 7 random traffic
dtnsim.node[7].app.enable = true
dtnsim.node[7].app.bundlesNumber = "1,1,1,1,1,1,1,1,1,1,1,1,1,1,1,1,1,1,1,1,1,1,1,1,1,1,1,1,1,1,1,1,1,1,1,1,1,1,1,1,1,1,1,1,1,1,1,1,1,1,1,1,1,1,1,1,1,1,1,1,1,1,1,1,1,1,1,1,1,1,1,1,1,1,1,1,1,1,1,1,1,1,1,1,1,1,1,1,1,1,1,1,1,1,1,1,1,1,1,1"
dtnsim.node[7].app.start = "19,5,5,16,19,20,17,7,4,11,7,20,18,9,7,13,20,9,3,15,18,16,2,1,15,4,12,7,13,10,1,2,20,9,19,19,8,5,14,3,18,8,17,18,15,12,13,4,16,3,9,17,9,10,9,10,18,8,20,16,11,19,15,3,18,8,4,10,11,3,19,7,7,15,3,13,13,1,14,10,2,6,10,10,12,13,13,15,7,11,18,11,7,16,12,13,7,17,17,8"
dtnsim.node[7].app.destinationEid = "355,315,267,97,187,8,190,319,170,162,86,173,89,341,186,170,172,47,329,91,27,22,262,8,131,307,202,348,263,261,218,152,175,19,69,182,279,281,154,258,338,179,175,220,239,51,260,10,132,172,186,226,165,317,196,213,277,182,240,4,320,118,249,356,207,281,127,117,101,265,313,249,63,298,305,326,113,193,355,305,309,88,303,11,311,26,189,166,284,38,273,168,83,49,168,62,67,131,146,88"
dtnsim.node[7].app.size = "50,50,100,50,200,200,50,200,50,200,200,50,500,100,200,500,100,200,500,100,200,50,200,200,500,100,200,100,100,500,500,200,500,500,200,500,500,50,200,100,100,50,500,100,500,200,100,500,500,100,100,500,50,200,50,100,200,50,50,100,100,500,100,500,500,50,500,200,200,100,100,100,200,50,100,500,500,200,500,200,100,100,50,200,200,200,500,200,500,500,200,50,50,50,500,500,500,50,50,50"
        # Node 8 random traffic
dtnsim.node[8].app.enable = true
dtnsim.node[8].app.bundlesNumber = "1,1,1,1,1,1,1,1,1,1,1,1,1,1,1,1,1,1,1,1,1,1,1,1,1,1,1,1,1,1,1,1,1,1,1,1,1,1,1,1,1,1,1,1,1,1,1,1,1,1,1,1,1,1,1,1,1,1,1,1,1,1,1,1,1,1,1,1,1,1,1,1,1,1,1,1,1,1,1,1,1,1,1,1,1,1,1,1,1,1,1,1,1,1,1,1,1,1,1,1"
dtnsim.node[8].app.start = "14,4,18,5,8,19,7,3,10,9,4,6,20,18,18,5,12,18,17,14,12,9,11,4,8,19,8,9,18,2,17,8,14,5,12,13,9,7,16,7,5,2,9,17,8,16,14,7,17,3,5,9,18,1,5,4,8,11,9,10,4,18,20,4,18,19,20,8,1,15,18,12,6,20,1,12,15,7,15,20,5,10,2,1,16,12,2,11,18,12,11,17,9,6,1,3,2,16,19,14"
dtnsim.node[8].app.destinationEid = "211,304,278,68,210,350,153,291,356,339,73,248,56,17,267,290,360,254,10,232,183,86,294,259,3,191,154,224,148,360,283,139,56,179,189,46,360,78,335,118,33,31,107,40,175,134,10,9,209,142,340,342,137,181,82,222,338,308,36,149,193,299,345,271,261,7,29,1,142,294,144,180,219,274,359,39,294,50,162,158,255,140,144,183,182,299,328,295,313,107,80,352,68,293,340,93,92,167,71,176"
dtnsim.node[8].app.size = "100,500,500,100,500,200,100,200,500,100,100,200,500,200,500,500,200,200,100,50,200,100,50,100,50,500,50,500,500,100,500,500,50,200,100,100,200,100,100,50,500,50,500,200,500,500,200,500,200,500,500,50,50,50,500,500,50,100,50,200,500,500,200,200,500,200,50,500,50,100,500,100,200,50,100,500,200,200,500,200,500,500,100,500,100,100,500,500,500,100,50,200,500,100,500,100,500,200,50,200"
        # Node 9 random traffic
dtnsim.node[9].app.enable = true
dtnsim.node[9].app.bundlesNumber = "1,1,1,1,1,1,1,1,1,1,1,1,1,1,1,1,1,1,1,1,1,1,1,1,1,1,1,1,1,1,1,1,1,1,1,1,1,1,1,1,1,1,1,1,1,1,1,1,1,1,1,1,1,1,1,1,1,1,1,1,1,1,1,1,1,1,1,1,1,1,1,1,1,1,1,1,1,1,1,1,1,1,1,1,1,1,1,1,1,1,1,1,1,1,1,1,1,1,1,1"
dtnsim.node[9].app.start = "12,3,3,15,8,11,6,10,6,10,5,3,16,1,19,5,5,15,1,10,16,2,7,2,9,15,6,15,8,11,10,8,14,2,12,16,5,14,5,2,5,3,20,17,13,2,12,7,2,8,1,5,9,13,3,11,8,19,12,14,7,4,15,7,4,8,5,12,13,5,19,5,3,3,10,19,19,2,13,15,17,8,15,11,6,9,9,18,12,15,16,5,9,1,8,11,17,18,3,17"
dtnsim.node[9].app.destinationEid = "15,245,264,160,21,331,265,297,185,79,82,313,115,307,88,174,303,224,46,170,79,147,212,166,37,68,316,98,38,294,131,122,171,8,141,184,68,172,40,47,97,223,106,220,124,285,242,230,260,229,67,149,294,80,348,186,187,50,348,345,10,354,93,100,357,117,199,109,305,188,202,40,164,337,329,237,276,254,117,118,329,264,145,270,146,69,332,54,253,187,36,229,266,77,191,159,131,183,308,22"
dtnsim.node[9].app.size = "200,50,200,100,200,100,500,100,100,500,50,200,200,500,200,200,200,50,200,50,500,500,200,100,50,100,200,200,500,50,100,500,200,100,500,500,50,200,200,200,50,500,200,500,50,500,200,500,200,100,200,50,100,500,500,50,500,500,500,500,50,50,100,500,200,100,200,100,100,100,50,50,100,200,50,50,500,50,500,100,100,50,100,500,200,200,200,200,500,100,100,500,100,200,50,200,50,500,100,200"
        # Node 10 random traffic
dtnsim.node[10].app.enable = true
dtnsim.node[10].app.bundlesNumber = "1,1,1,1,1,1,1,1,1,1,1,1,1,1,1,1,1,1,1,1,1,1,1,1,1,1,1,1,1,1,1,1,1,1,1,1,1,1,1,1,1,1,1,1,1,1,1,1,1,1,1,1,1,1,1,1,1,1,1,1,1,1,1,1,1,1,1,1,1,1,1,1,1,1,1,1,1,1,1,1,1,1,1,1,1,1,1,1,1,1,1,1,1,1,1,1,1,1,1,1"
dtnsim.node[10].app.start = "4,9,6,19,8,8,12,10,14,17,6,16,15,9,11,19,7,17,19,11,4,3,18,19,17,4,17,15,19,18,6,11,14,15,12,1,3,9,14,6,11,3,13,17,3,19,15,9,13,18,9,4,5,1,20,8,13,9,10,19,1,1,16,1,16,3,20,16,12,19,5,14,2,13,10,2,7,12,11,16,18,1,17,19,18,18,15,8,20,5,15,18,11,14,9,10,17,16,1,9"
dtnsim.node[10].app.destinationEid = "349,266,360,24,299,301,43,181,158,101,226,27,30,183,210,110,20,346,56,182,56,230,244,84,216,302,228,44,20,319,44,304,219,331,247,360,255,269,280,3,28,284,257,342,281,117,17,196,254,209,236,170,68,170,143,117,1,154,260,196,348,277,98,107,220,22,156,73,111,6,207,156,141,170,261,104,323,72,205,329,236,107,221,282,160,252,84,69,115,181,34,72,222,68,34,301,50,232,309,31"
dtnsim.node[10].app.size = "100,200,200,500,50,200,100,50,100,200,50,100,50,200,500,500,100,500,100,500,50,50,500,200,50,100,200,500,100,50,200,200,500,100,500,50,50,100,500,200,200,500,500,500,100,500,100,50,200,500,50,100,100,500,200,100,200,100,200,200,500,500,100,100,100,50,50,500,200,200,200,200,100,100,500,200,200,500,50,500,50,200,50,500,100,500,500,500,200,500,100,500,50,200,100,500,500,500,500,500"
        # Node 11 random traffic
dtnsim.node[11].app.enable = true
dtnsim.node[11].app.bundlesNumber = "1,1,1,1,1,1,1,1,1,1,1,1,1,1,1,1,1,1,1,1,1,1,1,1,1,1,1,1,1,1,1,1,1,1,1,1,1,1,1,1,1,1,1,1,1,1,1,1,1,1,1,1,1,1,1,1,1,1,1,1,1,1,1,1,1,1,1,1,1,1,1,1,1,1,1,1,1,1,1,1,1,1,1,1,1,1,1,1,1,1,1,1,1,1,1,1,1,1,1,1"
dtnsim.node[11].app.start = "11,10,8,4,7,8,11,11,11,16,9,8,12,12,6,6,16,11,15,6,19,1,14,1,1,14,6,6,8,15,7,13,16,19,15,8,6,2,3,9,1,4,19,3,8,11,3,16,13,1,11,20,19,9,11,20,5,3,1,10,20,10,6,2,18,2,17,12,12,14,7,4,8,10,6,4,15,2,18,18,4,18,10,16,7,1,2,14,14,8,19,8,15,16,4,8,6,6,2,6"
dtnsim.node[11].app.destinationEid = "107,303,359,54,328,112,36,51,248,179,77,97,63,74,148,230,321,275,30,338,264,187,77,86,152,165,129,201,198,280,348,45,200,186,239,209,3,49,214,272,286,307,316,237,92,47,291,200,19,109,108,57,17,306,6,188,158,98,134,294,130,198,101,272,266,25,47,200,169,88,116,186,224,217,39,158,356,274,269,113,325,18,116,216,240,325,45,306,80,94,198,328,3,80,50,67,140,212,188,18"
dtnsim.node[11].app.size = "500,50,500,100,500,50,100,100,50,50,500,50,500,500,500,500,50,200,50,100,100,200,500,200,100,200,500,500,500,500,500,500,200,100,500,50,100,200,500,500,100,500,50,200,50,50,100,500,500,100,500,500,500,200,200,500,100,100,200,200,200,50,100,200,100,50,50,50,50,50,50,500,200,500,100,100,100,200,50,50,50,500,100,50,200,100,200,500,50,100,200,50,200,50,100,200,200,500,200,100"
        # Node 12 random traffic
dtnsim.node[12].app.enable = true
dtnsim.node[12].app.bundlesNumber = "1,1,1,1,1,1,1,1,1,1,1,1,1,1,1,1,1,1,1,1,1,1,1,1,1,1,1,1,1,1,1,1,1,1,1,1,1,1,1,1,1,1,1,1,1,1,1,1,1,1,1,1,1,1,1,1,1,1,1,1,1,1,1,1,1,1,1,1,1,1,1,1,1,1,1,1,1,1,1,1,1,1,1,1,1,1,1,1,1,1,1,1,1,1,1,1,1,1,1,1"
dtnsim.node[12].app.start = "6,17,19,1,9,2,2,20,11,6,1,3,10,6,2,10,6,7,16,15,1,10,17,16,20,4,6,5,14,8,15,14,15,4,18,5,7,17,8,17,14,10,15,18,12,12,7,17,1,7,7,6,13,14,18,20,6,14,2,14,18,20,4,18,2,17,20,2,15,4,8,6,16,7,10,4,1,1,13,17,9,18,17,14,19,20,2,19,17,16,5,16,7,17,4,19,16,4,19,13"
dtnsim.node[12].app.destinationEid = "120,210,358,334,264,344,217,356,360,38,324,17,283,177,198,142,57,225,90,359,238,333,47,276,79,175,243,155,124,279,328,134,278,10,287,200,44,280,47,42,322,19,348,52,99,23,197,113,82,349,52,257,88,359,45,205,2,96,73,155,92,335,226,86,59,142,300,220,223,41,88,31,105,75,342,137,197,327,69,260,355,324,104,9,26,16,235,359,47,347,296,86,351,205,71,125,131,113,328,169"
dtnsim.node[12].app.size = "200,50,200,50,100,100,200,500,100,100,100,100,500,200,50,100,50,200,500,100,50,50,50,500,50,200,200,100,200,200,500,200,50,100,100,500,500,500,500,500,50,200,500,200,100,100,200,500,50,100,100,200,100,100,200,100,200,50,200,200,100,100,500,200,50,500,50,200,200,100,200,50,50,100,50,100,200,500,100,100,200,100,200,200,50,100,500,100,500,50,500,100,50,500,200,500,50,500,50,500"
        # Node 13 random traffic
dtnsim.node[13].app.enable = true
dtnsim.node[13].app.bundlesNumber = "1,1,1,1,1,1,1,1,1,1,1,1,1,1,1,1,1,1,1,1,1,1,1,1,1,1,1,1,1,1,1,1,1,1,1,1,1,1,1,1,1,1,1,1,1,1,1,1,1,1,1,1,1,1,1,1,1,1,1,1,1,1,1,1,1,1,1,1,1,1,1,1,1,1,1,1,1,1,1,1,1,1,1,1,1,1,1,1,1,1,1,1,1,1,1,1,1,1,1,1"
dtnsim.node[13].app.start = "3,8,3,9,3,18,10,20,16,8,5,1,4,12,2,10,14,17,3,20,1,18,18,1,5,1,16,5,19,13,11,20,10,12,20,15,4,4,7,7,19,7,17,19,10,6,15,6,11,11,20,11,11,7,20,2,19,1,15,9,8,11,17,4,18,6,7,17,11,8,19,15,5,8,14,2,9,15,5,7,8,8,15,17,19,10,20,17,15,13,20,9,19,12,11,2,18,16,6,3"
dtnsim.node[13].app.destinationEid = "258,243,180,117,338,214,311,179,262,220,214,51,351,9,268,273,287,287,3,182,250,111,169,256,272,195,294,303,129,309,298,236,81,41,90,186,83,237,337,112,61,325,204,27,164,31,324,281,132,325,212,163,126,82,180,38,324,54,126,256,89,217,64,107,323,348,288,37,39,232,79,159,217,40,176,160,353,189,216,168,109,277,224,155,333,221,136,251,267,251,338,304,219,351,158,97,308,346,153,81"
dtnsim.node[13].app.size = "50,100,500,200,500,50,200,50,100,500,200,200,100,100,100,200,50,100,50,200,50,200,100,500,500,100,200,200,200,100,100,100,100,50,200,200,200,500,500,200,50,200,50,50,500,200,100,200,500,100,50,100,200,50,200,500,200,200,50,200,100,100,100,50,200,200,50,100,100,200,200,500,100,500,50,50,50,500,500,500,50,100,200,200,100,100,50,100,100,100,100,100,100,200,200,200,50,500,200,200"
        # Node 14 random traffic
dtnsim.node[14].app.enable = true
dtnsim.node[14].app.bundlesNumber = "1,1,1,1,1,1,1,1,1,1,1,1,1,1,1,1,1,1,1,1,1,1,1,1,1,1,1,1,1,1,1,1,1,1,1,1,1,1,1,1,1,1,1,1,1,1,1,1,1,1,1,1,1,1,1,1,1,1,1,1,1,1,1,1,1,1,1,1,1,1,1,1,1,1,1,1,1,1,1,1,1,1,1,1,1,1,1,1,1,1,1,1,1,1,1,1,1,1,1,1"
dtnsim.node[14].app.start = "13,16,20,7,4,20,16,10,11,13,9,20,9,5,14,15,6,8,9,15,4,2,14,19,10,4,16,15,4,3,8,2,2,7,18,12,4,15,8,10,9,8,13,18,12,18,8,20,10,15,7,8,9,5,14,3,6,8,10,17,14,2,15,16,13,8,19,14,17,17,2,10,17,7,6,1,2,12,19,11,2,16,19,8,15,19,19,6,12,3,3,7,4,19,6,18,12,18,9,8"
dtnsim.node[14].app.destinationEid = "146,354,50,56,209,265,319,138,283,88,70,281,72,248,149,201,249,24,55,218,32,263,260,160,112,339,288,224,58,71,114,239,18,120,119,43,241,172,287,74,305,87,123,43,178,42,332,129,116,74,218,304,214,182,82,103,35,295,49,142,92,351,232,335,304,96,158,192,120,108,12,231,232,92,299,146,3,328,223,22,334,23,248,70,349,199,335,72,325,204,93,241,279,32,247,171,60,297,152,85"
dtnsim.node[14].app.size = "200,200,100,200,100,200,500,200,100,200,50,200,50,500,100,200,200,500,100,200,50,500,100,50,100,100,200,50,50,200,50,100,500,50,100,50,200,200,50,200,500,200,50,50,500,100,100,500,200,200,500,500,200,200,50,500,200,100,200,100,100,50,500,100,50,200,500,200,500,200,100,500,500,200,50,200,200,50,50,50,500,200,50,500,200,50,50,100,200,500,50,500,500,50,100,50,200,50,100,200"
        # Node 15 random traffic
dtnsim.node[15].app.enable = true
dtnsim.node[15].app.bundlesNumber = "1,1,1,1,1,1,1,1,1,1,1,1,1,1,1,1,1,1,1,1,1,1,1,1,1,1,1,1,1,1,1,1,1,1,1,1,1,1,1,1,1,1,1,1,1,1,1,1,1,1,1,1,1,1,1,1,1,1,1,1,1,1,1,1,1,1,1,1,1,1,1,1,1,1,1,1,1,1,1,1,1,1,1,1,1,1,1,1,1,1,1,1,1,1,1,1,1,1,1,1"
dtnsim.node[15].app.start = "15,7,16,7,3,7,15,20,16,19,4,17,6,12,13,13,8,9,16,19,15,14,3,20,11,5,20,7,10,19,13,1,6,5,4,1,20,9,13,12,6,19,13,7,7,9,1,15,4,12,19,13,2,9,14,10,18,7,6,7,7,19,6,8,12,12,16,8,20,13,1,15,20,13,12,19,18,6,17,4,17,2,7,12,8,3,3,13,14,17,5,7,1,14,2,2,18,18,13,9"
dtnsim.node[15].app.destinationEid = "353,76,197,60,163,81,240,354,2,27,99,355,247,75,77,277,94,66,246,321,304,205,6,57,260,26,163,19,32,4,208,353,357,306,48,167,106,68,313,105,235,316,310,82,154,90,129,94,80,210,20,75,84,94,306,120,34,313,86,3,232,237,239,267,35,196,96,337,306,236,60,116,300,236,40,1,150,213,152,287,264,29,32,111,276,351,115,73,173,338,271,27,245,145,344,33,20,23,174,253"
dtnsim.node[15].app.size = "50,200,50,200,500,50,200,200,500,200,100,100,200,500,100,50,50,500,50,50,200,100,50,200,100,50,50,100,50,200,50,500,500,100,200,200,200,50,200,200,50,50,500,50,200,100,200,500,100,100,200,100,100,100,200,500,200,500,100,100,100,100,100,200,200,500,500,200,500,200,200,100,50,100,500,500,100,50,500,500,100,100,50,200,100,50,100,100,100,50,100,200,100,50,100,500,500,50,50,50"
        # Node 16 random traffic
dtnsim.node[16].app.enable = true
dtnsim.node[16].app.bundlesNumber = "1,1,1,1,1,1,1,1,1,1,1,1,1,1,1,1,1,1,1,1,1,1,1,1,1,1,1,1,1,1,1,1,1,1,1,1,1,1,1,1,1,1,1,1,1,1,1,1,1,1,1,1,1,1,1,1,1,1,1,1,1,1,1,1,1,1,1,1,1,1,1,1,1,1,1,1,1,1,1,1,1,1,1,1,1,1,1,1,1,1,1,1,1,1,1,1,1,1,1,1"
dtnsim.node[16].app.start = "12,13,1,10,19,19,5,13,16,11,12,15,10,12,9,12,2,8,8,8,9,16,14,19,10,20,11,10,3,17,9,10,12,19,15,7,12,2,14,7,19,12,13,7,14,16,6,17,17,15,15,17,20,5,20,4,10,17,16,9,4,8,2,8,2,11,12,7,15,10,20,10,1,7,19,15,2,18,14,16,7,8,15,11,6,3,11,16,17,15,20,7,6,6,7,2,6,8,20,2"
dtnsim.node[16].app.destinationEid = "290,255,199,213,76,96,329,6,264,201,249,206,108,11,193,216,105,316,186,313,250,327,315,125,2,85,62,204,285,120,13,310,200,252,148,32,166,344,7,37,298,19,263,180,43,171,85,299,219,43,146,108,64,354,358,52,307,262,98,46,300,225,245,63,184,52,180,201,193,228,30,33,129,217,67,55,312,100,117,300,194,269,190,137,54,5,180,214,356,207,192,283,286,63,216,69,174,131,262,271"
dtnsim.node[16].app.size = "50,100,100,50,500,100,100,500,500,200,50,50,100,100,200,200,200,100,50,500,50,500,100,100,200,200,500,200,50,100,200,100,50,200,200,500,500,200,500,500,50,50,200,50,200,50,500,100,100,500,100,500,200,50,500,100,100,50,200,50,50,500,100,200,50,100,100,50,200,500,100,100,100,500,500,100,50,500,100,500,500,500,100,100,100,500,50,50,500,100,200,100,500,50,50,500,500,50,200,200"
        # Node 17 random traffic
dtnsim.node[17].app.enable = true
dtnsim.node[17].app.bundlesNumber = "1,1,1,1,1,1,1,1,1,1,1,1,1,1,1,1,1,1,1,1,1,1,1,1,1,1,1,1,1,1,1,1,1,1,1,1,1,1,1,1,1,1,1,1,1,1,1,1,1,1,1,1,1,1,1,1,1,1,1,1,1,1,1,1,1,1,1,1,1,1,1,1,1,1,1,1,1,1,1,1,1,1,1,1,1,1,1,1,1,1,1,1,1,1,1,1,1,1,1,1"
dtnsim.node[17].app.start = "17,6,8,9,16,6,10,6,10,8,14,19,20,6,16,8,13,11,10,7,11,15,19,7,13,2,14,9,13,13,5,5,15,16,3,5,6,12,2,14,5,7,14,8,19,3,13,15,6,3,2,13,3,3,16,13,18,10,7,1,4,16,8,13,14,2,15,2,9,20,5,15,18,17,13,16,4,16,18,19,13,13,19,10,19,17,12,7,12,7,8,1,14,1,8,8,17,4,11,11"
dtnsim.node[17].app.destinationEid = "292,167,275,247,247,281,187,132,88,57,89,36,351,161,72,202,262,18,41,355,165,65,360,245,351,195,115,223,137,228,4,163,24,259,190,298,130,300,154,127,78,143,9,9,224,222,178,156,8,214,60,36,149,38,106,46,133,255,53,165,2,326,310,206,202,177,182,273,182,305,167,353,92,335,158,76,253,227,346,339,151,277,288,105,180,55,340,245,332,109,24,89,18,84,18,101,166,143,116,340"
dtnsim.node[17].app.size = "50,50,100,200,500,200,500,500,500,100,50,200,100,100,50,50,100,200,200,500,50,200,50,100,50,50,50,50,50,50,100,200,50,500,200,200,50,50,50,500,200,500,200,50,100,500,100,200,200,500,500,500,500,100,500,500,100,100,50,100,200,50,200,100,100,50,50,200,500,50,500,200,200,100,500,50,50,50,500,500,100,200,100,500,100,500,500,100,200,100,200,200,500,50,200,500,50,200,100,200"
        # Node 18 random traffic
dtnsim.node[18].app.enable = true
dtnsim.node[18].app.bundlesNumber = "1,1,1,1,1,1,1,1,1,1,1,1,1,1,1,1,1,1,1,1,1,1,1,1,1,1,1,1,1,1,1,1,1,1,1,1,1,1,1,1,1,1,1,1,1,1,1,1,1,1,1,1,1,1,1,1,1,1,1,1,1,1,1,1,1,1,1,1,1,1,1,1,1,1,1,1,1,1,1,1,1,1,1,1,1,1,1,1,1,1,1,1,1,1,1,1,1,1,1,1"
dtnsim.node[18].app.start = "6,20,2,4,14,3,11,6,11,17,5,15,2,15,5,14,13,10,3,9,8,7,6,9,8,6,15,8,12,11,6,5,9,1,16,4,10,1,6,7,6,5,6,3,2,13,5,4,6,20,17,16,16,2,15,16,2,3,13,15,5,7,20,9,3,18,3,19,2,18,4,13,4,11,8,18,4,16,18,18,14,6,20,6,14,8,12,14,4,19,12,20,10,8,17,14,15,1,9,10"
dtnsim.node[18].app.destinationEid = "224,14,140,236,160,105,283,272,266,22,72,114,174,82,336,229,281,143,102,271,94,138,96,54,305,2,340,94,9,350,259,172,100,31,346,296,334,77,204,262,292,255,290,48,312,163,306,349,97,271,324,328,340,40,47,336,205,131,194,54,343,189,326,303,179,270,90,98,203,95,177,340,270,209,74,26,270,62,216,267,34,11,317,287,36,312,31,74,64,126,236,348,345,161,340,159,31,272,67,225"
dtnsim.node[18].app.size = "500,200,200,50,100,200,100,200,100,200,100,200,200,200,50,200,50,500,200,100,50,100,200,100,500,500,200,50,200,100,50,50,100,50,100,200,500,500,200,50,100,500,200,500,100,100,100,100,100,100,200,50,200,100,100,500,500,50,50,100,100,200,100,100,500,50,500,50,50,500,200,100,100,200,100,50,100,500,200,50,500,50,50,200,50,100,100,200,100,200,500,200,50,50,500,100,50,500,200,200"
        # Node 19 random traffic
dtnsim.node[19].app.enable = true
dtnsim.node[19].app.bundlesNumber = "1,1,1,1,1,1,1,1,1,1,1,1,1,1,1,1,1,1,1,1,1,1,1,1,1,1,1,1,1,1,1,1,1,1,1,1,1,1,1,1,1,1,1,1,1,1,1,1,1,1,1,1,1,1,1,1,1,1,1,1,1,1,1,1,1,1,1,1,1,1,1,1,1,1,1,1,1,1,1,1,1,1,1,1,1,1,1,1,1,1,1,1,1,1,1,1,1,1,1,1"
dtnsim.node[19].app.start = "6,19,7,11,2,15,20,19,20,4,10,16,6,14,15,6,8,13,1,14,16,5,16,12,5,4,18,14,10,14,10,13,20,11,18,12,9,18,9,17,9,19,6,16,18,1,2,9,5,9,13,8,10,4,20,16,6,9,2,12,6,7,6,6,18,17,7,15,1,9,3,8,16,18,18,7,3,16,9,19,8,12,1,5,3,13,6,9,12,2,13,12,15,16,7,15,19,15,1,14"
dtnsim.node[19].app.destinationEid = "235,248,239,20,16,324,70,301,5,258,90,127,216,133,346,349,148,185,215,299,271,348,266,350,30,97,216,4,234,8,117,260,172,326,354,182,111,123,59,307,54,78,57,210,186,130,12,336,309,106,232,198,241,15,314,233,315,20,193,189,301,29,81,185,161,114,72,87,41,139,342,93,142,276,296,351,24,188,75,96,296,67,70,130,50,326,298,185,106,151,41,260,64,212,149,59,56,293,286,14"
dtnsim.node[19].app.size = "200,50,500,100,500,500,500,200,500,200,100,200,500,200,500,100,50,50,50,500,50,100,50,500,200,50,500,50,100,50,200,200,200,200,100,500,100,500,50,50,100,500,100,200,100,200,200,50,100,200,50,100,200,500,200,500,100,200,50,500,500,200,200,50,500,50,200,200,100,200,100,100,500,500,50,500,100,200,50,500,500,500,50,200,200,500,200,50,200,100,200,50,50,200,200,100,200,50,100,50"
        # Node 20 random traffic
dtnsim.node[20].app.enable = true
dtnsim.node[20].app.bundlesNumber = "1,1,1,1,1,1,1,1,1,1,1,1,1,1,1,1,1,1,1,1,1,1,1,1,1,1,1,1,1,1,1,1,1,1,1,1,1,1,1,1,1,1,1,1,1,1,1,1,1,1,1,1,1,1,1,1,1,1,1,1,1,1,1,1,1,1,1,1,1,1,1,1,1,1,1,1,1,1,1,1,1,1,1,1,1,1,1,1,1,1,1,1,1,1,1,1,1,1,1,1"
dtnsim.node[20].app.start = "8,16,15,18,3,14,14,5,17,9,2,4,13,10,9,14,13,11,7,6,14,19,6,7,14,20,3,18,20,9,7,14,16,10,8,4,8,15,14,2,8,3,14,5,19,1,7,16,4,2,17,14,13,1,20,19,3,9,2,1,17,2,10,7,9,16,9,6,1,14,17,6,2,9,17,11,16,19,6,4,20,10,19,1,1,16,16,6,8,4,2,9,11,17,10,19,2,10,7,7"
dtnsim.node[20].app.destinationEid = "247,320,326,92,244,198,137,144,358,275,304,335,40,211,59,35,215,242,354,339,192,72,286,284,320,48,173,196,101,170,204,327,212,91,88,7,43,77,316,84,131,121,13,86,13,168,199,236,233,128,191,261,121,195,347,237,16,327,209,5,131,304,290,236,344,227,290,56,215,66,226,48,250,271,344,38,344,317,56,177,25,125,178,158,351,8,287,3,58,292,187,102,45,47,165,121,183,295,179,277"
dtnsim.node[20].app.size = "500,100,100,100,50,500,100,50,50,100,200,100,200,200,200,50,50,100,50,50,100,500,100,200,500,50,500,50,100,500,50,500,100,500,500,50,200,100,200,100,100,50,500,100,500,100,100,100,100,50,200,500,500,200,100,500,100,500,100,50,100,500,100,50,50,50,500,50,50,50,50,500,50,50,200,200,200,100,50,100,100,100,100,200,200,200,500,100,100,500,500,200,200,200,100,100,100,500,50,50"
        # Node 21 random traffic
dtnsim.node[21].app.enable = true
dtnsim.node[21].app.bundlesNumber = "1,1,1,1,1,1,1,1,1,1,1,1,1,1,1,1,1,1,1,1,1,1,1,1,1,1,1,1,1,1,1,1,1,1,1,1,1,1,1,1,1,1,1,1,1,1,1,1,1,1,1,1,1,1,1,1,1,1,1,1,1,1,1,1,1,1,1,1,1,1,1,1,1,1,1,1,1,1,1,1,1,1,1,1,1,1,1,1,1,1,1,1,1,1,1,1,1,1,1,1"
dtnsim.node[21].app.start = "4,11,18,19,4,5,18,13,10,9,16,18,15,9,1,1,18,1,10,9,14,12,19,15,6,7,13,19,17,7,3,6,2,16,20,18,10,4,15,17,6,9,10,17,1,1,15,11,12,9,8,7,11,9,18,4,14,14,6,8,7,20,2,1,2,13,1,4,16,6,4,1,16,18,19,18,7,12,15,12,9,15,20,1,14,13,19,8,7,20,12,4,18,14,16,12,4,14,10,17"
dtnsim.node[21].app.destinationEid = "353,69,323,260,218,63,1,322,209,7,358,19,7,212,130,317,159,69,258,311,15,237,226,103,18,223,86,91,351,65,2,70,265,356,279,302,159,63,110,69,130,81,293,124,53,70,7,182,335,292,128,24,76,331,187,122,33,142,101,126,65,262,196,110,102,316,61,14,287,54,4,166,124,294,270,23,293,230,282,333,18,285,330,235,184,127,119,24,135,45,14,304,269,136,327,232,50,198,102,236"