[General]
network = src.dtnsim										
repeat = 1
allow-object-stealing-on-deletion = true

# Simulation end time
sim-time-limit = 84600s

# Nodes quantity (identifiers (EiDs) matches their index, EiD=0 is ignored)			
dtnsim.nodesNumber = 360
dtnsim.node[*].icon = "satellite"

# Nodes's failure rates
dtnsim.node[*].fault.enable = true
dtnsim.node[*].fault.meanTTF = 40s
dtnsim.node[*].fault.meanTTR = 10s

# Mobility
dtnsim.node[*].hasMobility = true
dtnsim.node[*].noradModule.satIndex = parentIndex()
dtnsim.node[*].noradModule.satName = "sat"
**.updateInterval = 20s
**.numOfSats = 360
**.satPerPlane = 18
**.altitude = 540
**.planes = 20
**.phaseOffset = 11

dtnsim.node[*].dtn.routing = "antop"
dtnsim.node[*].dtn.printRoutingDebug = true

# --- Random Traffic Configuration ---
# Node 1 random traffic
dtnsim.node[1].app.enable = true
dtnsim.node[1].app.bundlesNumber = "1,1,1,1,1,1,1,1,1,1,1,1,1,1,1,1,1,1,1,1,1,1,1,1,1,1,1,1,1,1,1,1,1,1,1,1,1,1,1,1,1,1,1,1,1,1,1,1,1,1,1,1,1,1,1,1,1,1,1,1,1,1,1,1,1,1,1,1,1,1,1,1,1,1,1,1,1,1,1,1,1,1,1,1,1,1,1,1,1,1,1,1,1,1,1,1,1,1,1,1"
dtnsim.node[1].app.start = "9,13,15,17,8,12,5,11,15,8,7,20,3,7,2,19,12,2,13,10,18,2,19,3,17,8,20,20,7,3,3,4,4,18,1,19,11,18,5,7,2,13,11,11,3,13,18,11,5,11,7,11,14,13,3,13,17,18,5,11,12,1,17,10,16,20,18,8,9,1,9,9,13,14,20,13,2,16,16,17,17,13,17,5,13,10,10,3,17,12,10,20,18,7,14,18,16,11,18,6"
dtnsim.node[1].app.destinationEid = "339,281,64,188,66,198,58,304,212,77,187,126,331,158,203,110,201,180,181,215,179,208,144,284,96,30,332,269,37,67,56,166,55,295,183,184,237,305,182,181,149,265,181,354,64,19,301,223,39,236,258,321,207,320,260,278,307,257,43,157,145,359,136,289,325,82,138,207,122,164,206,309,318,165,22,5,58,288,350,114,195,204,169,247,168,248,197,80,166,262,245,213,286,311,232,53,316,359,296,359"
dtnsim.node[1].app.size = "100,100,200,100,200,500,50,200,100,200,500,100,500,200,500,100,500,50,100,500,50,200,50,100,200,100,500,100,50,100,50,500,100,50,50,50,500,50,50,200,50,50,50,200,200,500,200,100,200,200,50,500,500,100,500,500,200,50,100,500,200,500,200,500,500,50,500,200,500,500,200,50,500,500,50,200,50,200,100,200,100,500,500,200,50,100,100,50,500,50,200,50,50,500,50,100,100,200,500,200"
        # Node 2 random traffic
dtnsim.node[2].app.enable = true
dtnsim.node[2].app.bundlesNumber = "1,1,1,1,1,1,1,1,1,1,1,1,1,1,1,1,1,1,1,1,1,1,1,1,1,1,1,1,1,1,1,1,1,1,1,1,1,1,1,1,1,1,1,1,1,1,1,1,1,1,1,1,1,1,1,1,1,1,1,1,1,1,1,1,1,1,1,1,1,1,1,1,1,1,1,1,1,1,1,1,1,1,1,1,1,1,1,1,1,1,1,1,1,1,1,1,1,1,1,1"
dtnsim.node[2].app.start = "4,7,9,12,7,12,7,20,11,9,13,12,14,18,8,1,13,17,14,15,1,4,16,5,13,14,14,14,8,12,4,9,10,4,11,12,14,20,19,4,16,1,12,11,19,14,2,8,14,12,14,7,1,3,11,15,3,15,10,18,14,7,2,20,7,1,16,18,17,3,19,1,16,15,9,10,6,15,3,2,6,9,14,3,5,6,20,7,10,6,1,14,4,9,6,15,10,19,14,16"
dtnsim.node[2].app.destinationEid = "237,360,298,80,349,171,346,287,203,163,82,308,335,52,171,305,48,282,200,134,126,343,46,66,346,337,251,81,226,48,338,53,238,296,292,237,165,318,31,324,226,217,57,181,335,179,259,254,268,320,53,49,287,355,54,71,115,232,200,328,35,187,306,267,103,88,136,79,279,93,280,269,33,106,152,68,33,78,166,310,54,170,357,205,333,232,111,278,47,341,12,271,10,282,229,306,99,56,280,249"
dtnsim.node[2].app.size = "500,50,200,50,50,500,50,500,100,50,500,200,500,100,50,500,50,100,500,500,100,50,50,100,200,50,500,500,100,50,50,100,200,100,500,100,100,100,500,500,50,100,500,50,500,50,50,50,500,200,50,50,200,100,50,200,500,100,100,50,50,100,50,50,500,50,200,100,500,200,500,200,100,500,500,100,50,50,200,200,500,200,200,200,100,200,500,100,500,200,200,500,50,100,500,100,100,200,200,50"
        # Node 3 random traffic
dtnsim.node[3].app.enable = true
dtnsim.node[3].app.bundlesNumber = "1,1,1,1,1,1,1,1,1,1,1,1,1,1,1,1,1,1,1,1,1,1,1,1,1,1,1,1,1,1,1,1,1,1,1,1,1,1,1,1,1,1,1,1,1,1,1,1,1,1,1,1,1,1,1,1,1,1,1,1,1,1,1,1,1,1,1,1,1,1,1,1,1,1,1,1,1,1,1,1,1,1,1,1,1,1,1,1,1,1,1,1,1,1,1,1,1,1,1,1"
dtnsim.node[3].app.start = "13,19,4,13,14,20,18,7,14,6,10,5,11,15,9,16,16,14,4,1,11,4,16,2,13,13,2,10,1,14,14,19,1,8,11,2,6,1,4,14,19,10,18,3,12,17,13,5,13,7,16,2,10,5,6,15,6,17,17,8,19,2,13,11,4,10,11,10,18,20,14,7,4,4,1,10,2,18,18,4,1,19,3,2,17,13,4,13,15,10,6,19,7,13,14,10,2,13,4,10"
dtnsim.node[3].app.destinationEid = "236,151,271,49,333,128,270,194,59,101,218,148,38,253,203,331,20,187,158,31,140,236,156,191,9,283,198,75,100,46,246,117,301,278,247,143,297,287,172,150,78,259,358,12,164,283,324,273,354,185,115,239,79,250,301,280,251,57,151,271,50,342,217,158,314,257,20,182,193,259,239,348,197,90,244,112,317,305,52,288,127,125,221,212,213,333,242,287,126,80,326,61,261,39,179,38,200,321,25,168"
dtnsim.node[3].app.size = "500,100,50,500,500,200,200,200,200,200,50,200,500,500,500,100,100,50,50,50,200,500,50,100,100,50,200,50,500,200,200,200,50,500,100,100,100,500,200,100,200,200,200,50,50,100,100,50,50,200,200,200,50,100,500,500,50,100,500,100,200,100,100,500,100,50,200,500,200,100,200,50,500,50,200,500,200,100,50,50,50,500,100,500,50,50,500,500,100,200,500,100,50,500,500,500,500,50,200,500"
        # Node 4 random traffic
dtnsim.node[4].app.enable = true
dtnsim.node[4].app.bundlesNumber = "1,1,1,1,1,1,1,1,1,1,1,1,1,1,1,1,1,1,1,1,1,1,1,1,1,1,1,1,1,1,1,1,1,1,1,1,1,1,1,1,1,1,1,1,1,1,1,1,1,1,1,1,1,1,1,1,1,1,1,1,1,1,1,1,1,1,1,1,1,1,1,1,1,1,1,1,1,1,1,1,1,1,1,1,1,1,1,1,1,1,1,1,1,1,1,1,1,1,1,1"
dtnsim.node[4].app.start = "11,1,19,16,8,17,1,7,17,14,16,11,16,17,19,18,5,13,5,20,10,18,8,2,7,13,6,6,8,19,1,4,6,9,4,11,5,15,11,20,15,2,8,9,6,7,3,19,2,1,19,8,3,20,6,16,11,4,20,19,16,10,1,4,15,10,16,11,2,19,17,13,16,17,15,5,17,19,4,5,6,3,12,19,17,20,13,6,10,16,20,14,19,6,8,13,3,19,5,12"
dtnsim.node[4].app.destinationEid = "276,5,137,334,166,128,84,180,152,50,129,335,22,321,238,334,251,82,307,21,312,166,183,354,346,135,71,89,238,51,7,137,18,257,54,96,183,263,160,56,8,132,173,77,33,155,165,8,229,317,351,298,96,356,139,42,209,210,35,203,29,244,350,33,47,137,279,291,158,18,337,141,150,139,298,141,238,221,73,97,43,123,122,264,87,313,38,10,299,246,196,10,55,312,182,62,221,222,203,119"
dtnsim.node[4].app.size = "200,200,500,200,200,100,100,500,100,500,50,100,50,50,50,500,500,50,500,100,200,200,50,200,500,500,200,100,50,500,100,500,200,100,100,50,100,500,500,200,50,100,200,50,500,200,500,500,50,200,500,50,50,200,200,50,50,200,500,500,100,200,100,100,500,50,100,200,200,500,500,500,100,50,100,100,500,200,500,500,50,100,200,50,200,100,200,100,50,500,50,50,100,100,100,500,100,100,200,500"
        # Node 5 random traffic
dtnsim.node[5].app.enable = true
dtnsim.node[5].app.bundlesNumber = "1,1,1,1,1,1,1,1,1,1,1,1,1,1,1,1,1,1,1,1,1,1,1,1,1,1,1,1,1,1,1,1,1,1,1,1,1,1,1,1,1,1,1,1,1,1,1,1,1,1,1,1,1,1,1,1,1,1,1,1,1,1,1,1,1,1,1,1,1,1,1,1,1,1,1,1,1,1,1,1,1,1,1,1,1,1,1,1,1,1,1,1,1,1,1,1,1,1,1,1"
dtnsim.node[5].app.start = "19,5,18,19,12,8,1,16,6,8,6,10,7,1,2,13,19,17,18,1,11,1,5,10,18,3,16,14,5,11,14,5,7,17,7,12,15,5,8,9,10,19,14,20,18,12,3,1,15,16,17,11,17,15,8,19,1,13,11,15,20,6,19,6,20,13,4,2,20,19,15,3,15,8,12,3,1,5,18,5,12,15,17,3,13,13,18,3,4,18,16,15,3,13,13,11,11,15,11,14"
dtnsim.node[5].app.destinationEid = "165,210,263,18,162,202,300,72,112,189,283,67,269,203,63,210,123,356,193,323,118,188,200,230,223,336,296,67,35,209,234,211,132,274,312,23,293,238,100,325,232,341,110,221,314,185,126,292,80,143,351,266,293,330,296,219,128,56,30,224,225,341,77,279,110,292,188,279,295,248,258,77,360,71,205,289,240,162,150,103,312,56,276,130,18,308,185,15,32,98,119,56,322,105,223,268,319,295,19,203"
dtnsim.node[5].app.size = "200,200,500,100,50,200,100,500,100,50,100,200,500,100,500,50,500,50,500,500,500,100,50,500,200,100,50,500,50,50,100,100,100,50,200,100,50,200,50,500,200,500,200,50,50,50,200,200,50,500,100,200,500,200,500,100,50,200,500,200,500,50,500,500,50,500,500,500,200,500,50,200,200,500,50,200,50,50,100,200,200,200,200,500,200,200,50,200,100,500,500,500,100,100,100,50,50,200,200,100"
        # Node 6 random traffic
dtnsim.node[6].app.enable = true
dtnsim.node[6].app.bundlesNumber = "1,1,1,1,1,1,1,1,1,1,1,1,1,1,1,1,1,1,1,1,1,1,1,1,1,1,1,1,1,1,1,1,1,1,1,1,1,1,1,1,1,1,1,1,1,1,1,1,1,1,1,1,1,1,1,1,1,1,1,1,1,1,1,1,1,1,1,1,1,1,1,1,1,1,1,1,1,1,1,1,1,1,1,1,1,1,1,1,1,1,1,1,1,1,1,1,1,1,1,1"
dtnsim.node[6].app.start = "10,19,4,5,9,12,19,4,18,1,15,1,2,19,3,12,20,1,5,4,19,18,4,11,13,15,2,7,10,20,7,17,19,18,4,4,11,9,8,10,2,3,9,9,13,6,9,18,19,12,1,20,13,10,6,14,8,5,13,3,9,1,8,18,18,2,19,6,6,13,7,3,7,12,6,8,4,17,5,1,12,19,3,11,4,18,20,19,3,16,13,2,17,4,1,12,11,3,11,20"
dtnsim.node[6].app.destinationEid = "61,244,231,343,215,180,157,25,128,47,222,343,46,20,162,276,250,321,221,58,289,155,91,196,218,292,83,57,4,220,230,177,242,193,287,295,221,281,340,75,88,17,97,232,245,63,5,252,114,129,92,305,152,281,328,37,12,27,169,316,190,220,234,115,143,176,264,214,303,211,147,227,74,161,32,58,73,97,38,129,196,348,267,263,106,277,290,49,199,244,65,157,170,303,22,190,318,321,330,230"
dtnsim.node[6].app.size = "50,100,50,100,50,200,100,50,200,500,50,100,50,100,100,50,50,200,100,500,200,200,200,50,50,500,500,500,500,500,200,50,500,500,500,100,200,500,50,200,200,100,50,100,500,100,500,100,200,100,200,100,500,500,50,500,50,100,200,200,50,500,50,500,500,50,500,500,50,200,50,200,500,200,200,50,200,200,100,50,500,200,200,200,200,500,50,500,100,100,100,100,50,200,200,200,200,500,200,50"
        # Node 7 random traffic
dtnsim.node[7].app.enable = true
dtnsim.node[7].app.bundlesNumber = "1,1,1,1,1,1,1,1,1,1,1,1,1,1,1,1,1,1,1,1,1,1,1,1,1,1,1,1,1,1,1,1,1,1,1,1,1,1,1,1,1,1,1,1,1,1,1,1,1,1,1,1,1,1,1,1,1,1,1,1,1,1,1,1,1,1,1,1,1,1,1,1,1,1,1,1,1,1,1,1,1,1,1,1,1,1,1,1,1,1,1,1,1,1,1,1,1,1,1,1"
dtnsim.node[7].app.start = "15,4,8,15,4,12,19,17,13,18,11,15,14,4,14,3,9,7,6,4,12,16,13,11,19,18,11,12,7,20,18,19,13,7,8,19,20,20,4,16,20,15,17,3,12,20,3,9,1,6,15,14,4,9,5,7,8,4,11,6,13,7,17,15,9,18,16,10,18,10,2,5,9,9,20,16,5,11,7,3,14,10,6,1,17,13,19,1,4,5,4,4,11,11,15,16,11,2,2,19"
dtnsim.node[7].app.destinationEid = "133,171,201,309,225,117,174,306,29,35,172,160,163,90,282,221,256,113,183,249,275,52,63,214,35,48,61,301,192,244,13,185,56,83,127,231,58,50,295,97,216,332,23,103,110,314,107,76,244,302,94,111,74,250,203,194,204,10,110,232,86,315,174,165,154,56,88,339,39,127,61,67,85,314,278,163,66,313,18,135,70,179,13,186,173,159,181,279,102,186,2,273,185,154,303,85,324,88,275,17"
dtnsim.node[7].app.size = "100,500,500,500,100,200,100,50,200,100,100,500,200,100,50,500,100,100,200,200,500,50,500,50,500,50,50,100,200,50,100,100,100,200,50,200,200,500,200,100,100,50,100,500,200,200,500,100,100,50,100,50,500,500,200,100,500,100,200,50,100,500,50,200,100,50,50,100,500,200,50,50,50,50,100,200,500,50,50,200,200,200,50,200,100,100,500,50,500,100,50,100,50,200,50,100,50,200,100,50"
        # Node 8 random traffic
dtnsim.node[8].app.enable = true
dtnsim.node[8].app.bundlesNumber = "1,1,1,1,1,1,1,1,1,1,1,1,1,1,1,1,1,1,1,1,1,1,1,1,1,1,1,1,1,1,1,1,1,1,1,1,1,1,1,1,1,1,1,1,1,1,1,1,1,1,1,1,1,1,1,1,1,1,1,1,1,1,1,1,1,1,1,1,1,1,1,1,1,1,1,1,1,1,1,1,1,1,1,1,1,1,1,1,1,1,1,1,1,1,1,1,1,1,1,1"
dtnsim.node[8].app.start = "3,11,5,17,4,16,16,13,13,12,19,18,8,1,11,18,10,15,10,19,15,18,1,18,20,4,1,1,17,13,7,5,19,14,1,19,6,4,7,20,4,15,1,13,12,9,2,6,16,16,14,1,14,20,11,13,16,2,15,10,8,10,9,19,1,10,12,6,14,12,17,9,18,4,15,14,3,6,20,7,3,8,8,12,20,6,14,5,1,20,16,3,1,2,4,7,5,19,11,10"
dtnsim.node[8].app.destinationEid = "99,320,250,172,190,92,150,179,142,83,256,129,175,306,222,323,261,346,321,27,95,26,244,352,84,213,156,65,215,209,21,227,68,279,183,271,181,75,152,117,254,166,360,79,244,180,203,131,219,83,282,125,5,5,282,360,341,314,281,168,42,121,65,288,148,125,200,14,20,253,114,338,174,119,88,274,103,109,102,45,298,221,223,160,152,289,229,150,279,166,112,72,333,291,198,243,250,240,220,183"
dtnsim.node[8].app.size = "100,100,500,500,200,500,100,200,200,200,50,500,100,100,50,50,200,50,50,200,50,200,500,100,100,100,100,200,200,100,200,500,200,500,50,50,100,500,500,100,200,50,200,50,50,200,200,100,50,50,50,200,50,500,200,200,100,200,500,500,500,100,100,200,50,500,500,50,500,100,100,500,200,50,500,100,50,100,50,100,200,200,200,500,100,100,200,200,100,50,50,50,200,50,500,50,100,500,50,200"
        # Node 9 random traffic
dtnsim.node[9].app.enable = true
dtnsim.node[9].app.bundlesNumber = "1,1,1,1,1,1,1,1,1,1,1,1,1,1,1,1,1,1,1,1,1,1,1,1,1,1,1,1,1,1,1,1,1,1,1,1,1,1,1,1,1,1,1,1,1,1,1,1,1,1,1,1,1,1,1,1,1,1,1,1,1,1,1,1,1,1,1,1,1,1,1,1,1,1,1,1,1,1,1,1,1,1,1,1,1,1,1,1,1,1,1,1,1,1,1,1,1,1,1,1"
dtnsim.node[9].app.start = "20,16,1,3,8,15,11,8,13,14,18,6,9,17,7,17,14,15,9,2,2,17,7,15,18,15,10,19,17,8,3,7,15,14,2,12,11,13,3,2,13,20,11,8,17,16,5,20,9,7,11,3,16,17,9,19,6,5,20,19,19,3,18,2,13,2,2,9,6,17,12,8,15,19,19,17,5,7,8,5,17,15,6,20,9,8,11,16,7,8,18,14,1,7,10,7,16,20,6,13"
dtnsim.node[9].app.destinationEid = "172,135,341,25,238,48,104,306,101,233,217,123,130,289,10,134,291,88,180,226,230,169,135,325,84,37,83,320,112,349,350,191,8,78,118,248,131,290,119,329,357,250,7,183,142,122,227,100,226,109,11,213,333,59,77,231,71,218,353,126,335,46,191,280,200,221,147,301,235,140,38,132,141,242,4,116,81,49,292,258,257,233,67,134,92,268,215,340,68,243,181,25,149,90,124,108,126,334,68,115"
dtnsim.node[9].app.size = "50,50,500,100,200,50,100,100,50,500,50,500,50,500,500,100,100,50,100,200,100,50,50,200,500,100,200,50,100,50,100,50,200,50,500,50,50,100,50,50,200,100,100,100,50,100,50,100,50,50,50,50,200,500,100,500,100,500,500,50,500,50,500,50,50,200,500,500,200,100,50,50,100,100,100,50,100,100,50,200,500,100,50,100,200,200,100,50,100,500,200,50,100,200,100,500,100,500,50,50"
        # Node 10 random traffic
dtnsim.node[10].app.enable = true
dtnsim.node[10].app.bundlesNumber = "1,1,1,1,1,1,1,1,1,1,1,1,1,1,1,1,1,1,1,1,1,1,1,1,1,1,1,1,1,1,1,1,1,1,1,1,1,1,1,1,1,1,1,1,1,1,1,1,1,1,1,1,1,1,1,1,1,1,1,1,1,1,1,1,1,1,1,1,1,1,1,1,1,1,1,1,1,1,1,1,1,1,1,1,1,1,1,1,1,1,1,1,1,1,1,1,1,1,1,1"
dtnsim.node[10].app.start = "11,6,13,20,12,10,13,7,14,1,6,19,17,8,13,15,10,16,10,2,13,19,18,4,19,14,1,16,8,9,13,15,19,8,13,10,18,4,3,9,14,7,7,8,11,2,14,5,20,17,4,6,20,14,19,17,18,20,13,8,14,4,15,9,10,18,13,14,8,11,14,12,10,8,20,1,4,11,9,18,15,9,17,11,12,10,4,1,14,17,20,14,2,20,19,15,13,18,16,1"
dtnsim.node[10].app.destinationEid = "261,52,235,167,344,70,7,23,154,144,250,181,84,243,34,167,201,39,178,200,31,122,240,296,34,84,239,129,7,175,265,246,282,15,288,289,165,138,272,198,261,249,311,118,55,77,116,311,190,41,203,197,262,192,333,288,69,6,191,159,160,343,61,92,185,352,301,132,39,133,295,274,175,320,348,171,316,151,171,319,296,281,286,56,271,200,239,240,238,263,155,91,219,53,135,191,331,31,96,23"
dtnsim.node[10].app.size = "500,200,100,200,50,500,500,200,100,500,200,100,100,500,500,500,500,500,50,500,200,200,50,50,500,100,500,200,50,100,200,50,50,200,200,50,100,200,500,50,200,100,500,100,200,100,200,100,50,50,200,100,50,200,100,100,50,50,200,500,500,50,100,50,200,200,500,200,50,500,50,200,500,100,50,50,50,200,500,200,200,100,500,200,50,50,100,100,50,50,200,200,50,100,100,50,100,500,500,500"
        # Node 11 random traffic
dtnsim.node[11].app.enable = true
dtnsim.node[11].app.bundlesNumber = "1,1,1,1,1,1,1,1,1,1,1,1,1,1,1,1,1,1,1,1,1,1,1,1,1,1,1,1,1,1,1,1,1,1,1,1,1,1,1,1,1,1,1,1,1,1,1,1,1,1,1,1,1,1,1,1,1,1,1,1,1,1,1,1,1,1,1,1,1,1,1,1,1,1,1,1,1,1,1,1,1,1,1,1,1,1,1,1,1,1,1,1,1,1,1,1,1,1,1,1"
dtnsim.node[11].app.start = "12,3,12,14,2,19,8,19,18,7,6,10,11,2,11,6,9,18,7,12,16,13,7,17,1,11,17,9,4,10,12,4,18,16,10,16,2,5,19,1,17,2,10,4,11,3,3,16,19,15,4,16,4,5,6,11,14,17,11,8,5,3,8,11,7,2,7,13,7,11,9,10,9,4,15,7,11,18,19,20,10,5,16,7,9,18,19,2,1,13,11,10,6,19,20,14,2,11,10,18"
dtnsim.node[11].app.destinationEid = "137,340,234,211,109,268,15,141,103,109,215,14,327,322,106,161,323,59,222,182,329,94,250,100,133,175,214,266,84,320,220,119,105,210,306,290,286,287,185,115,132,202,258,197,181,310,153,284,171,88,127,318,33,12,56,340,302,354,238,231,317,128,289,146,208,126,72,191,100,310,16,249,216,74,171,176,182,340,242,151,165,195,85,19,92,223,172,265,94,310,230,342,269,262,33,296,98,169,142,50"
dtnsim.node[11].app.size = "500,100,200,50,50,50,500,100,500,500,500,100,500,500,500,50,500,500,100,100,50,200,500,200,100,500,50,50,200,500,500,500,50,50,200,100,200,100,500,200,100,500,500,50,100,100,50,500,100,100,200,100,50,100,500,100,50,100,50,500,100,200,100,50,200,100,200,100,500,50,50,100,100,200,100,50,200,500,50,100,500,500,50,50,500,50,200,50,100,100,50,100,50,500,100,100,500,200,200,50"
        # Node 12 random traffic
dtnsim.node[12].app.enable = true
dtnsim.node[12].app.bundlesNumber = "1,1,1,1,1,1,1,1,1,1,1,1,1,1,1,1,1,1,1,1,1,1,1,1,1,1,1,1,1,1,1,1,1,1,1,1,1,1,1,1,1,1,1,1,1,1,1,1,1,1,1,1,1,1,1,1,1,1,1,1,1,1,1,1,1,1,1,1,1,1,1,1,1,1,1,1,1,1,1,1,1,1,1,1,1,1,1,1,1,1,1,1,1,1,1,1,1,1,1,1"
dtnsim.node[12].app.start = "19,5,15,14,7,20,13,1,15,16,15,2,1,5,17,3,5,17,18,1,2,16,17,12,8,12,1,8,20,7,11,1,14,13,18,4,6,6,20,5,8,18,15,4,8,3,14,19,2,3,16,11,15,11,15,13,19,2,6,12,20,11,5,3,4,20,4,12,4,6,16,12,11,14,19,3,17,5,1,4,10,10,17,20,1,1,15,11,16,15,7,7,7,11,18,16,2,1,17,18"
dtnsim.node[12].app.destinationEid = "6,195,27,274,81,30,18,320,122,131,323,66,124,289,59,342,332,159,18,282,143,87,329,278,236,354,297,84,336,228,256,274,337,171,34,97,217,50,184,330,179,160,114,330,270,183,147,29,234,89,50,275,299,350,57,203,159,258,22,180,210,201,101,147,104,263,1,37,167,289,108,119,296,219,120,176,117,203,242,177,157,298,173,242,325,167,125,152,114,155,89,267,348,113,191,83,93,63,172,318"
dtnsim.node[12].app.size = "200,100,200,50,500,500,100,100,100,100,500,100,100,200,50,500,50,50,200,50,200,50,500,200,200,200,50,500,500,50,200,200,500,200,500,200,200,50,100,50,50,50,50,200,50,200,50,200,100,500,500,50,100,100,500,500,500,500,100,500,200,100,500,500,100,200,200,500,100,500,50,50,100,100,200,50,500,500,500,50,500,500,200,500,100,50,50,200,100,100,500,200,200,500,100,500,200,50,50,200"
        # Node 13 random traffic
dtnsim.node[13].app.enable = true
dtnsim.node[13].app.bundlesNumber = "1,1,1,1,1,1,1,1,1,1,1,1,1,1,1,1,1,1,1,1,1,1,1,1,1,1,1,1,1,1,1,1,1,1,1,1,1,1,1,1,1,1,1,1,1,1,1,1,1,1,1,1,1,1,1,1,1,1,1,1,1,1,1,1,1,1,1,1,1,1,1,1,1,1,1,1,1,1,1,1,1,1,1,1,1,1,1,1,1,1,1,1,1,1,1,1,1,1,1,1"
dtnsim.node[13].app.start = "11,18,18,19,19,7,18,14,7,1,6,11,8,12,4,13,9,17,12,9,3,1,8,9,12,6,16,3,7,11,10,20,5,13,1,18,4,4,13,6,11,14,16,2,4,9,2,16,19,12,16,8,17,1,15,2,9,4,14,15,12,11,12,5,17,19,17,17,3,16,8,3,9,19,3,17,1,18,18,16,10,20,20,10,5,11,14,17,11,14,19,4,14,10,15,9,6,10,2,3"
dtnsim.node[13].app.destinationEid = "35,84,148,341,293,87,228,135,295,32,356,243,220,317,275,164,352,64,133,135,311,101,68,38,23,14,285,195,139,282,292,272,118,123,146,197,321,106,76,345,269,233,200,324,159,46,9,230,58,65,263,23,108,297,68,236,357,221,67,216,95,171,191,54,83,99,191,52,115,224,356,105,145,248,191,179,115,353,154,342,107,231,150,35,152,87,11,151,40,359,159,119,221,30,339,185,239,354,322,115"
dtnsim.node[13].app.size = "200,500,200,500,50,200,50,50,500,50,500,500,200,50,100,50,200,100,500,50,100,500,50,50,200,100,100,200,500,50,100,100,200,100,50,500,500,500,200,100,500,200,200,200,200,100,50,200,500,100,500,500,500,50,100,200,50,500,200,100,200,200,500,50,200,50,50,50,500,200,100,200,50,200,200,50,100,50,500,200,500,200,100,500,50,50,100,500,200,500,100,500,500,100,100,50,100,200,500,100"
        # Node 14 random traffic
dtnsim.node[14].app.enable = true
dtnsim.node[14].app.bundlesNumber = "1,1,1,1,1,1,1,1,1,1,1,1,1,1,1,1,1,1,1,1,1,1,1,1,1,1,1,1,1,1,1,1,1,1,1,1,1,1,1,1,1,1,1,1,1,1,1,1,1,1,1,1,1,1,1,1,1,1,1,1,1,1,1,1,1,1,1,1,1,1,1,1,1,1,1,1,1,1,1,1,1,1,1,1,1,1,1,1,1,1,1,1,1,1,1,1,1,1,1,1"
dtnsim.node[14].app.start = "12,17,11,6,19,8,11,9,14,15,13,13,19,12,11,8,6,18,15,4,1,19,16,19,1,11,5,7,3,6,14,4,11,16,12,8,16,8,7,15,20,15,13,14,11,9,6,10,2,18,1,5,13,2,1,17,2,12,16,1,13,15,4,2,20,19,19,18,5,17,9,16,7,10,19,15,15,1,10,8,14,10,10,16,4,3,14,11,12,15,12,19,13,3,3,1,6,18,3,13"
dtnsim.node[14].app.destinationEid = "171,216,290,182,345,218,7,29,158,112,283,272,59,45,77,329,156,91,271,113,169,184,73,60,35,5,189,44,136,81,225,41,235,129,332,353,75,320,39,296,260,277,250,207,346,160,27,5,3,175,83,171,198,8,23,74,220,218,305,220,287,142,359,119,194,317,214,184,228,232,178,210,34,281,249,205,237,128,297,132,123,354,43,184,45,242,31,202,238,307,260,321,142,328,300,325,253,61,154,300"
dtnsim.node[14].app.size = "100,200,200,50,200,100,50,500,200,500,500,500,500,50,500,500,200,200,100,500,200,50,50,100,100,50,100,500,50,500,100,500,100,200,200,200,200,200,200,500,500,100,500,100,200,50,50,100,100,500,200,500,100,50,200,500,50,200,200,100,100,500,50,100,200,500,100,200,200,200,100,500,500,500,100,500,50,100,200,500,200,50,200,50,200,50,100,100,100,100,50,500,500,50,100,100,100,500,100,100"
        # Node 15 random traffic
dtnsim.node[15].app.enable = true
dtnsim.node[15].app.bundlesNumber = "1,1,1,1,1,1,1,1,1,1,1,1,1,1,1,1,1,1,1,1,1,1,1,1,1,1,1,1,1,1,1,1,1,1,1,1,1,1,1,1,1,1,1,1,1,1,1,1,1,1,1,1,1,1,1,1,1,1,1,1,1,1,1,1,1,1,1,1,1,1,1,1,1,1,1,1,1,1,1,1,1,1,1,1,1,1,1,1,1,1,1,1,1,1,1,1,1,1,1,1"
dtnsim.node[15].app.start = "12,4,10,9,12,18,3,17,10,9,5,15,11,19,13,19,14,15,15,9,18,16,5,2,16,12,18,5,1,7,17,18,18,14,18,1,1,12,15,2,11,1,14,2,3,19,8,2,3,7,16,17,16,6,12,5,3,7,15,1,3,11,11,14,18,16,20,17,13,2,18,8,9,17,19,19,4,5,12,11,2,8,18,17,8,16,19,14,15,19,12,8,8,16,20,15,1,12,15,10"
dtnsim.node[15].app.destinationEid = "19,30,111,205,134,351,20,234,305,23,67,285,302,185,51,142,248,200,58,116,214,243,36,350,243,55,311,236,134,8,150,139,30,293,162,274,121,150,213,63,207,21,56,323,123,243,87,271,285,58,127,117,346,78,157,130,335,203,104,357,13,181,50,152,166,73,85,351,143,44,306,107,122,293,181,158,137,34,144,88,167,29,163,285,83,153,260,111,78,56,238,356,12,64,19,5,166,215,112,23"
dtnsim.node[15].app.size = "50,500,100,50,200,100,100,500,500,100,100,500,500,100,500,200,50,500,500,200,500,50,200,50,200,50,50,500,50,100,200,50,100,500,50,200,500,200,100,500,200,500,200,50,100,100,100,100,100,500,50,100,200,500,50,50,200,200,100,500,500,500,200,100,500,100,100,50,200,100,100,200,100,200,200,200,200,500,200,200,100,100,50,500,500,50,200,100,100,50,100,100,500,50,200,50,100,50,100,500"
        # Node 16 random traffic
dtnsim.node[16].app.enable = true
dtnsim.node[16].app.bundlesNumber = "1,1,1,1,1,1,1,1,1,1,1,1,1,1,1,1,1,1,1,1,1,1,1,1,1,1,1,1,1,1,1,1,1,1,1,1,1,1,1,1,1,1,1,1,1,1,1,1,1,1,1,1,1,1,1,1,1,1,1,1,1,1,1,1,1,1,1,1,1,1,1,1,1,1,1,1,1,1,1,1,1,1,1,1,1,1,1,1,1,1,1,1,1,1,1,1,1,1,1,1"
dtnsim.node[16].app.start = "11,10,7,17,14,1,2,10,18,7,5,15,3,1,11,12,6,19,5,13,17,8,13,8,20,8,15,2,1,19,16,9,15,19,16,1,12,2,6,14,19,2,16,19,8,6,7,20,8,2,14,16,10,7,9,3,20,16,19,12,2,10,20,6,9,9,10,9,6,19,9,12,4,16,16,2,3,5,9,16,19,3,20,17,8,11,13,4,6,8,8,4,7,8,11,8,1,4,13,18"
dtnsim.node[16].app.destinationEid = "141,83,201,317,138,355,80,95,102,241,140,344,241,298,274,14,160,300,24,4,105,301,151,1,50,157,87,230,202,258,299,88,80,189,154,316,45,73,333,268,39,47,95,343,309,124,204,18,137,355,205,183,170,248,75,138,207,78,292,42,169,256,250,316,259,38,108,299,317,160,216,253,141,299,213,94,38,190,218,295,224,323,233,256,33,276,191,57,177,59,130,354,305,32,121,335,82,81,173,336"
dtnsim.node[16].app.size = "500,50,100,50,100,50,200,50,50,500,500,200,500,50,100,500,200,100,50,200,200,500,50,100,50,100,100,500,100,200,200,100,100,50,50,200,200,500,200,50,100,100,50,100,500,100,100,500,500,50,50,50,100,500,500,200,100,100,500,100,50,50,100,50,100,100,200,200,200,100,100,500,200,200,500,50,50,200,100,200,500,50,200,50,50,100,500,100,200,100,500,100,200,50,200,200,200,100,50,200"
        # Node 17 random traffic
dtnsim.node[17].app.enable = true
dtnsim.node[17].app.bundlesNumber = "1,1,1,1,1,1,1,1,1,1,1,1,1,1,1,1,1,1,1,1,1,1,1,1,1,1,1,1,1,1,1,1,1,1,1,1,1,1,1,1,1,1,1,1,1,1,1,1,1,1,1,1,1,1,1,1,1,1,1,1,1,1,1,1,1,1,1,1,1,1,1,1,1,1,1,1,1,1,1,1,1,1,1,1,1,1,1,1,1,1,1,1,1,1,1,1,1,1,1,1"
dtnsim.node[17].app.start = "11,4,19,2,11,15,15,10,14,3,2,9,12,3,8,12,20,18,19,20,7,8,3,3,11,1,12,1,4,4,7,18,9,11,16,8,4,2,11,3,3,4,19,20,16,18,8,15,15,20,4,4,9,14,9,6,6,18,1,5,13,1,13,19,20,11,16,15,19,5,6,18,9,9,15,6,2,14,12,8,17,12,14,14,16,14,7,20,2,15,20,1,10,13,20,8,19,2,19,10"
dtnsim.node[17].app.destinationEid = "13,24,12,90,53,176,296,188,330,141,165,43,115,227,205,251,251,81,341,176,332,51,252,240,9,210,131,31,279,235,154,91,180,194,293,269,177,13,180,77,95,286,343,75,252,96,37,144,301,303,69,89,306,1,355,222,54,288,55,255,315,322,89,331,209,193,129,326,36,203,251,230,137,4,353,57,313,328,176,2,350,137,233,260,328,263,329,102,136,53,115,351,310,32,317,326,257,333,95,118"
dtnsim.node[17].app.size = "100,50,500,500,200,200,50,100,100,100,50,100,100,500,500,200,500,100,200,100,500,50,100,100,50,50,200,50,200,200,200,50,500,200,200,200,100,100,50,200,100,500,200,200,100,50,200,500,500,500,50,50,200,50,100,50,500,50,50,100,100,500,500,200,50,500,100,100,200,100,100,100,50,100,50,200,500,100,200,200,100,50,100,200,100,50,500,50,100,200,500,500,200,50,500,50,500,50,500,500"
        # Node 18 random traffic
dtnsim.node[18].app.enable = true
dtnsim.node[18].app.bundlesNumber = "1,1,1,1,1,1,1,1,1,1,1,1,1,1,1,1,1,1,1,1,1,1,1,1,1,1,1,1,1,1,1,1,1,1,1,1,1,1,1,1,1,1,1,1,1,1,1,1,1,1,1,1,1,1,1,1,1,1,1,1,1,1,1,1,1,1,1,1,1,1,1,1,1,1,1,1,1,1,1,1,1,1,1,1,1,1,1,1,1,1,1,1,1,1,1,1,1,1,1,1"
dtnsim.node[18].app.start = "4,19,7,7,13,8,10,11,7,20,11,9,16,17,12,14,13,5,14,3,3,7,18,1,11,19,17,19,9,1,4,1,3,5,19,9,7,8,6,1,3,12,15,15,15,15,5,9,9,16,6,2,1,7,5,6,20,9,11,1,3,14,1,16,13,15,8,9,9,2,8,8,5,15,8,11,16,1,7,19,3,15,3,2,5,9,8,15,9,10,16,14,4,9,5,20,4,6,1,7"
dtnsim.node[18].app.destinationEid = "8,126,357,215,239,229,7,300,163,220,135,177,162,240,240,178,297,296,284,135,76,138,269,178,336,266,187,15,197,265,211,64,54,9,10,155,115,174,129,308,112,303,269,353,133,50,205,299,26,235,40,176,183,278,138,20,346,134,75,290,215,345,202,339,146,203,65,318,36,347,192,320,323,211,157,249,318,63,294,17,49,103,22,218,125,271,72,189,10,60,257,64,209,57,292,142,74,134,209,11"
dtnsim.node[18].app.size = "50,200,200,50,100,50,500,500,100,50,50,500,100,100,500,50,200,500,50,200,100,100,50,200,50,500,50,500,200,100,200,500,50,100,100,200,500,50,500,50,100,500,100,50,500,500,100,50,50,100,500,200,50,50,200,500,500,50,100,100,200,500,100,200,500,100,500,50,50,50,100,200,50,200,50,500,500,500,200,200,500,100,100,100,200,200,200,100,100,50,100,100,100,50,200,100,100,200,50,200"
        # Node 19 random traffic
dtnsim.node[19].app.enable = true
dtnsim.node[19].app.bundlesNumber = "1,1,1,1,1,1,1,1,1,1,1,1,1,1,1,1,1,1,1,1,1,1,1,1,1,1,1,1,1,1,1,1,1,1,1,1,1,1,1,1,1,1,1,1,1,1,1,1,1,1,1,1,1,1,1,1,1,1,1,1,1,1,1,1,1,1,1,1,1,1,1,1,1,1,1,1,1,1,1,1,1,1,1,1,1,1,1,1,1,1,1,1,1,1,1,1,1,1,1,1"
dtnsim.node[19].app.start = "6,20,16,19,10,11,13,14,10,5,15,16,14,14,15,9,4,13,8,6,20,1,10,13,2,12,13,14,10,1,3,18,16,13,19,8,16,19,18,7,4,3,2,6,12,2,13,3,18,18,6,9,9,8,7,3,20,18,3,15,15,1,9,15,18,16,6,17,4,2,10,10,4,10,20,15,20,17,15,16,14,20,8,17,15,9,15,4,10,14,4,18,3,10,16,2,13,9,3,13"
dtnsim.node[19].app.destinationEid = "25,147,24,315,170,271,141,117,352,277,317,145,304,336,199,93,302,18,299,291,209,97,211,107,20,264,144,28,270,68,289,34,328,260,273,115,81,90,84,67,220,324,124,175,169,164,55,337,182,236,334,85,143,150,322,359,102,224,308,95,32,193,291,164,301,75,166,200,274,316,33,227,211,222,23,18,281,325,299,254,100,182,63,198,292,51,33,162,33,75,169,110,252,301,181,39,85,187,270,126"
dtnsim.node[19].app.size = "500,100,200,200,200,100,50,100,100,200,500,500,50,200,500,100,500,200,50,50,200,100,200,100,500,100,200,200,200,100,100,100,100,100,100,500,200,500,200,200,50,50,100,50,200,200,100,500,50,500,200,50,100,50,50,100,200,500,500,200,500,50,500,500,200,200,50,100,50,200,50,50,50,50,500,200,200,50,200,100,100,50,100,200,50,100,200,100,100,200,100,500,100,200,50,100,50,500,500,200"
        # Node 20 random traffic
dtnsim.node[20].app.enable = true
dtnsim.node[20].app.bundlesNumber = "1,1,1,1,1,1,1,1,1,1,1,1,1,1,1,1,1,1,1,1,1,1,1,1,1,1,1,1,1,1,1,1,1,1,1,1,1,1,1,1,1,1,1,1,1,1,1,1,1,1,1,1,1,1,1,1,1,1,1,1,1,1,1,1,1,1,1,1,1,1,1,1,1,1,1,1,1,1,1,1,1,1,1,1,1,1,1,1,1,1,1,1,1,1,1,1,1,1,1,1"
dtnsim.node[20].app.start = "6,12,18,8,5,3,14,9,11,18,8,14,7,12,17,4,12,5,13,9,11,15,17,3,7,8,14,13,17,1,20,11,12,10,14,3,2,15,18,11,11,9,11,13,12,6,4,2,20,17,4,2,2,2,6,19,10,5,14,13,13,14,17,19,12,4,5,6,14,15,10,4,20,7,10,9,10,12,6,8,12,16,1,17,8,13,1,3,17,12,15,19,7,4,4,5,4,2,18,18"
dtnsim.node[20].app.destinationEid = "211,123,315,138,290,304,269,96,65,80,100,153,248,352,298,94,216,358,299,37,221,268,151,249,351,163,295,87,165,84,12,132,206,154,169,282,312,293,341,207,82,163,201,232,116,328,242,225,18,158,303,329,298,36,356,109,3,283,286,256,12,16,96,75,15,257,351,265,60,309,325,157,10,192,209,74,119,267,246,248,91,186,170,42,106,311,216,40,271,149,38,29,75,183,210,139,202,255,70,161"
dtnsim.node[20].app.size = "50,200,200,500,500,200,200,50,500,200,200,50,100,50,200,50,50,500,500,200,100,100,200,200,500,500,100,500,500,200,200,200,50,500,200,100,100,500,200,50,100,200,200,500,100,200,200,500,50,100,200,500,50,500,100,50,500,100,50,100,500,100,100,100,50,500,100,500,100,200,200,200,200,500,500,500,500,200,100,100,200,500,50,500,200,100,50,100,200,500,200,100,50,200,200,200,200,100,200,500"
        # Node 21 random traffic
dtnsim.node[21].app.enable = true
dtnsim.node[21].app.bundlesNumber = "1,1,1,1,1,1,1,1,1,1,1,1,1,1,1,1,1,1,1,1,1,1,1,1,1,1,1,1,1,1,1,1,1,1,1,1,1,1,1,1,1,1,1,1,1,1,1,1,1,1,1,1,1,1,1,1,1,1,1,1,1,1,1,1,1,1,1,1,1,1,1,1,1,1,1,1,1,1,1,1,1,1,1,1,1,1,1,1,1,1,1,1,1,1,1,1,1,1,1,1"
dtnsim.node[21].app.start = "6,15,7,17,7,3,9,16,4,11,18,2,12,14,5,11,19,16,4,2,4,3,17,2,9,6,2,20,18,16,17,9,1,14,10,16,16,2,18,7,2,15,7,1,13,7,2,7,2,14,20,20,7,2,3,2,12,10,19,3,11,4,1,2,6,7,11,18,3,4,12,9,17,19,11,8,14,6,3,12,3,14,18,4,4,5,16,19,15,3,6,8,20,19,13,18,20,14,15,7"
dtnsim.node[21].app.destinationEid = "210,39,181,37,119,90,215,346,172,277,51,225,6,318,287,100,84,311,204,34,360,286,218,311,288,40,195,261,25,97,156,130,99,222,301,154,319,169,95,233,306,332,152,29,194,62,234,63,73,56,81,119,235,233,117,119,268,178,308,54,147,347,231,317,301,337,355,82,254,70,220,127,273,112,359,337,175,305,86,70,310,43,247,77,333,304,36,118,279,316,116,150,202,256,220,80,346,249,302,144"