[General]
network = src.dtnsim										
repeat = 1
allow-object-stealing-on-deletion = true

# Simulation end time
sim-time-limit = 84600s

# Nodes quantity (identifiers (EiDs) matches their index, EiD=0 is ignored)			
dtnsim.nodesNumber = 360
dtnsim.node[*].icon = "satellite"

# Nodes's failure rates
dtnsim.node[*].fault.enable = true
dtnsim.node[*].fault.meanTTF = 90s
dtnsim.node[*].fault.meanTTR = 10s

# Mobility
dtnsim.node[*].hasMobility = true
dtnsim.node[*].norad.satIndex = parentIndex()
dtnsim.node[*].norad.satName = "sat"
**.updateInterval = 20s
**.numOfSats = 360
**.satPerPlane = 18
**.altitude = 540
**.planes = 20
**.phaseOffset = 11

dtnsim.node[*].dtn.routing = "antop"
dtnsim.node[*].dtn.printRoutingDebug = true

# --- Random Traffic Configuration ---
# Node 1 random traffic
dtnsim.node[1].app.enable = true
dtnsim.node[1].app.bundlesNumber = "6,27,14,18,6,38,35,14,20,7,13,45,34,36,7,2,42,36,24,6,13,37,3,33,8,29,44,5,15,46,18,26,45,19,15,35,37,8,3,31,7,8,3,1,47,35,16,13,36,25,16,43,22,36,7,36,7,31,43,32,18,36,41,24,5,23,1,34,1,16,26,36,22,16,4,42,26,44,8,39,24,36,40,13,50,24,4,3,17,18,38,7,47,25,2,41,44,19,26,40"
dtnsim.node[1].app.start = "95,17,10,87,4,88,91,93,78,12,44,35,35,20,34,50,41,16,56,83,36,68,42,45,85,6,8,88,65,11,41,4,66,57,31,26,92,13,60,71,17,27,48,32,66,6,85,77,43,93,98,45,29,45,14,13,68,76,71,2,54,83,35,10,46,8,21,62,80,72,53,73,37,15,75,23,53,77,43,70,84,56,17,24,77,33,79,77,93,49,76,91,90,74,46,99,93,53,17,68"
dtnsim.node[1].app.destinationEid = "24,354,11,178,84,291,47,341,76,214,284,150,296,187,301,54,262,188,283,125,179,170,353,327,349,351,127,271,232,18,23,85,161,19,301,142,42,93,145,357,234,248,308,29,10,312,254,353,307,237,22,147,244,166,242,78,21,332,313,304,80,2,279,136,13,105,203,65,259,7,143,112,5,271,208,126,282,223,151,253,135,104,61,68,48,113,358,163,176,141,96,38,222,207,151,80,191,333,162,65"
dtnsim.node[1].app.size = "50,50,500,100,500,500,100,500,200,500,100,50,500,100,100,200,200,50,100,500,500,100,200,100,200,50,100,500,200,100,500,200,500,200,200,50,500,50,100,500,200,500,200,500,500,50,50,50,200,50,100,50,50,50,500,50,100,100,100,500,500,50,100,50,100,50,200,500,100,50,500,200,50,500,50,100,200,200,50,100,200,500,500,100,500,50,100,100,50,50,200,100,200,500,200,100,50,500,500,50"
# Node 2 random traffic
dtnsim.node[2].app.enable = true
dtnsim.node[2].app.bundlesNumber = "31,24,12,49,27,38,31,9,9,13,37,26,24,35,30,12,22,27,18,4,20,28,9,13,27,36,44,11,15,44,26,25,14,36,38,41,20,32,48,50,28,32,39,40,16,33,37,49,20,33,15,30,45,5,50,22,27,32,35,21,1,4,1,32,15,24,15,43,19,10,14,4,6,13,49,49,16,23,1,37,45,13,37,32,5,30,17,21,50,8,9,24,3,24,34,13,2,25,33,18"
dtnsim.node[2].app.start = "4,89,95,67,12,59,78,33,25,37,49,51,15,13,80,17,8,56,84,11,89,58,46,82,61,52,66,45,54,61,80,4,50,1,37,37,84,39,55,3,12,7,62,67,70,17,94,95,22,11,53,71,17,89,83,24,40,69,4,28,42,9,36,78,15,44,71,20,80,47,39,3,66,49,52,60,84,79,92,84,23,9,47,18,91,18,89,47,82,18,56,59,37,45,49,73,97,47,35,68"
dtnsim.node[2].app.destinationEid = "287,99,229,164,226,145,112,14,311,223,354,38,11,304,209,87,138,120,257,177,335,313,206,318,352,322,129,343,110,56,68,197,82,102,313,10,28,85,79,8,144,332,320,319,319,6,163,45,305,309,101,150,88,68,200,61,145,200,47,167,54,107,219,4,171,111,33,169,260,282,293,276,107,87,64,210,44,147,298,276,79,316,246,137,226,190,255,357,61,320,303,323,214,18,50,215,82,192,281,275"
dtnsim.node[2].app.size = "500,200,200,200,100,200,200,100,100,200,50,50,100,100,500,50,200,500,50,50,100,500,50,50,500,100,500,200,50,50,500,500,200,100,500,100,500,200,50,50,200,200,500,500,500,50,100,100,100,100,500,200,50,200,50,200,100,500,100,500,500,200,100,200,100,500,200,50,50,50,200,200,50,50,50,200,200,500,50,50,50,200,500,100,50,50,50,100,50,200,500,200,100,50,100,500,50,50,500,500"
# Node 3 random traffic
dtnsim.node[3].app.enable = true
dtnsim.node[3].app.bundlesNumber = "37,10,34,22,1,43,47,41,13,40,13,28,2,46,47,17,32,39,40,21,10,27,16,7,38,3,4,6,4,6,31,42,28,39,32,50,25,13,5,48,46,41,27,4,32,27,38,18,34,16,7,29,46,50,6,34,32,29,4,23,37,3,18,10,1,11,42,5,27,19,22,37,38,22,19,39,47,49,25,15,12,18,17,1,14,36,38,34,13,24,45,3,43,18,5,10,5,44,5,32"
dtnsim.node[3].app.start = "40,17,53,51,79,77,96,50,80,18,8,78,76,81,77,28,65,99,2,38,74,77,15,5,44,8,12,58,9,1,58,77,26,93,40,93,7,77,6,97,57,5,38,76,88,11,40,79,31,79,7,41,42,100,29,82,7,51,15,66,62,46,86,22,31,49,88,45,27,22,83,76,94,79,52,71,55,38,74,66,18,31,49,5,96,78,14,61,39,38,14,38,54,37,11,7,41,87,77,76"
dtnsim.node[3].app.destinationEid = "259,2,21,140,288,222,323,27,214,282,358,126,92,142,115,43,350,29,56,194,304,199,29,181,107,65,78,56,133,63,2,261,75,47,125,301,275,351,320,293,270,311,104,7,203,270,180,340,114,297,327,222,170,322,163,35,47,123,325,350,253,346,118,61,249,230,150,310,211,251,291,287,356,194,131,150,223,146,55,345,4,150,303,120,60,281,84,12,340,160,84,36,81,322,72,307,316,252,57,159"
dtnsim.node[3].app.size = "100,200,200,100,50,100,50,200,200,100,200,100,50,500,500,100,100,50,50,50,100,100,50,500,100,100,200,50,100,50,100,200,200,500,100,200,200,500,50,100,500,500,200,50,500,500,50,200,50,200,50,200,100,50,50,200,200,100,500,100,50,50,500,200,100,500,200,500,50,500,500,500,100,500,50,100,500,100,100,200,500,500,50,50,200,200,500,200,200,200,200,500,100,50,200,50,500,500,200,200"
# Node 4 random traffic
dtnsim.node[4].app.enable = true
dtnsim.node[4].app.bundlesNumber = "27,43,5,16,47,23,40,32,50,2,25,34,25,7,42,7,11,22,1,10,4,23,50,11,31,47,26,13,29,43,30,30,39,28,5,39,37,10,10,13,34,45,29,25,31,11,37,42,11,37,8,35,16,46,9,5,6,13,50,28,22,46,38,21,21,19,50,34,32,35,10,2,15,1,22,45,50,5,22,4,17,14,27,31,46,28,40,47,46,35,29,11,9,30,18,32,21,41,45,32"
dtnsim.node[4].app.start = "2,90,26,67,96,11,97,33,100,83,92,68,12,63,26,77,40,41,86,78,16,85,22,22,17,64,32,10,57,79,15,17,12,66,55,62,86,88,6,41,51,43,91,52,46,29,8,5,40,84,38,2,89,88,9,60,61,51,41,45,72,55,77,38,16,5,3,77,18,86,61,67,66,11,84,39,89,79,98,80,17,90,96,26,41,64,96,2,88,35,61,84,65,14,73,34,5,14,19,19"
dtnsim.node[4].app.destinationEid = "171,138,109,140,244,121,290,107,341,110,108,204,30,338,164,203,220,350,217,52,23,329,53,69,346,100,71,61,164,141,24,52,119,102,198,64,113,57,103,325,273,233,335,154,331,58,314,47,157,274,309,6,250,164,258,347,74,125,319,291,14,309,24,49,277,273,266,17,25,331,215,242,159,249,297,132,14,313,176,192,343,193,176,92,47,92,51,280,43,268,300,58,274,14,14,48,353,321,211,194"
dtnsim.node[4].app.size = "500,100,100,500,200,500,200,50,100,500,100,500,200,500,500,200,200,100,50,500,100,100,200,200,200,50,500,50,500,200,50,100,50,500,100,50,100,100,50,200,200,100,100,500,200,100,50,200,200,500,200,500,100,100,50,100,200,500,50,500,500,100,50,100,50,50,50,50,100,200,500,500,200,200,100,200,100,50,50,500,100,100,200,500,200,500,50,100,200,500,200,50,500,100,100,100,200,500,50,200"
# Node 5 random traffic
dtnsim.node[5].app.enable = true
dtnsim.node[5].app.bundlesNumber = "44,24,7,47,1,13,49,40,43,46,5,13,19,35,34,32,49,20,29,33,43,15,23,29,24,25,3,39,49,33,20,43,34,49,38,1,43,29,48,23,40,1,2,40,41,24,31,2,26,5,21,16,6,35,18,36,49,23,50,20,38,5,20,41,26,26,2,12,14,21,24,45,26,47,21,35,26,8,14,13,21,2,47,14,16,20,49,4,15,44,36,27,43,45,8,23,31,30,36,50"
dtnsim.node[5].app.start = "61,24,19,10,18,63,48,87,32,46,61,60,69,83,16,6,66,23,93,36,33,4,43,96,37,5,38,96,59,7,84,10,87,42,93,37,20,18,3,30,21,30,40,12,64,81,5,30,85,10,98,2,68,13,4,31,25,99,6,32,79,69,54,63,67,17,4,6,34,17,53,51,56,19,66,95,86,71,8,45,64,14,92,3,89,29,19,18,52,99,55,32,8,2,49,85,76,54,58,77"
dtnsim.node[5].app.destinationEid = "329,83,319,200,116,87,84,302,93,271,345,272,320,345,51,55,335,245,216,286,259,121,348,317,289,52,213,130,161,291,88,33,358,172,328,318,331,102,291,309,292,3,170,334,255,345,111,187,222,45,99,321,90,318,69,44,48,39,259,6,152,236,274,292,190,16,180,219,342,314,280,60,71,43,164,261,309,250,156,269,34,176,40,8,68,300,142,262,288,238,34,164,81,3,345,329,234,114,29,50"
dtnsim.node[5].app.size = "50,100,100,500,200,100,50,500,500,100,500,500,200,200,100,50,500,100,200,50,100,200,200,50,200,200,100,500,200,500,200,100,50,200,200,100,500,200,50,200,200,500,100,200,100,200,50,200,50,100,50,200,50,50,50,500,50,50,100,200,100,200,500,50,50,50,50,100,100,200,100,200,100,500,200,50,100,100,500,200,200,200,200,200,50,200,100,500,200,200,100,50,100,200,200,500,100,200,100,200"
# Node 6 random traffic
dtnsim.node[6].app.enable = true
dtnsim.node[6].app.bundlesNumber = "45,49,24,34,25,26,42,26,1,46,37,15,50,17,7,8,39,14,2,30,13,28,5,34,9,38,49,43,10,24,30,24,28,39,42,10,24,46,22,10,25,47,19,7,4,37,47,26,24,9,2,33,31,17,1,16,41,13,45,15,23,11,2,34,42,18,26,7,3,40,19,42,6,20,9,23,35,14,21,27,37,43,7,23,28,49,21,19,14,19,19,35,24,44,17,42,50,23,8,44"
dtnsim.node[6].app.start = "77,56,75,30,70,79,9,3,98,94,83,16,11,1,2,68,98,52,67,21,71,88,74,74,48,18,54,56,68,100,55,25,42,63,87,45,49,39,79,87,76,42,76,39,59,97,44,86,11,80,50,36,3,92,57,62,1,56,72,62,48,98,34,9,28,83,26,89,72,97,53,38,60,21,40,91,9,64,81,10,5,37,2,31,64,96,98,76,16,56,78,87,77,54,74,98,64,91,18,28"
dtnsim.node[6].app.destinationEid = "240,78,341,314,196,140,182,349,146,161,16,318,301,141,260,140,307,228,170,147,305,145,202,63,125,31,247,352,209,99,201,130,106,348,192,75,22,182,311,319,231,98,254,356,199,231,162,117,131,57,288,119,207,180,278,200,118,303,209,62,41,57,144,77,172,150,279,12,87,143,177,296,208,204,26,165,135,2,107,86,72,232,151,123,285,267,58,289,31,152,195,163,331,254,91,109,182,14,2,188"
dtnsim.node[6].app.size = "50,200,200,100,200,50,500,50,200,100,200,200,500,200,100,500,200,100,50,50,50,50,500,100,500,200,50,500,200,200,200,50,100,50,200,100,500,500,200,100,50,50,500,500,200,200,50,200,100,200,500,500,100,200,50,500,100,200,200,50,100,500,50,500,100,200,100,50,50,500,100,500,100,50,500,100,500,200,200,50,100,100,100,500,500,200,500,200,200,500,200,100,100,100,50,200,500,200,200,200"
# Node 7 random traffic
dtnsim.node[7].app.enable = true
dtnsim.node[7].app.bundlesNumber = "21,30,23,38,16,37,2,39,34,39,21,27,13,48,25,6,47,14,39,32,42,49,33,37,48,14,42,17,22,22,4,30,41,40,16,31,24,38,13,21,1,47,28,8,45,6,46,45,28,3,3,43,31,29,49,31,39,25,44,4,27,23,2,13,23,15,27,31,39,44,36,45,1,19,15,39,22,25,19,2,28,1,16,35,30,45,11,25,16,27,34,17,18,47,28,22,46,32,49,17"
dtnsim.node[7].app.start = "94,50,12,9,100,17,34,11,99,80,21,97,80,99,33,57,34,40,49,62,12,87,82,53,18,3,65,61,64,98,65,48,42,23,39,12,29,42,91,20,13,23,90,74,36,55,70,73,14,63,6,15,14,20,85,99,84,5,15,67,89,35,55,98,78,47,91,5,84,2,45,45,21,11,78,37,40,37,44,98,66,70,2,93,78,21,64,84,77,15,34,23,4,41,29,8,17,90,50,27"
dtnsim.node[7].app.destinationEid = "327,281,90,338,305,273,204,278,60,343,50,313,66,31,17,29,185,194,311,360,260,129,297,234,197,337,70,187,312,95,299,352,27,51,258,80,50,23,61,190,179,149,55,352,259,257,153,315,97,215,171,116,46,269,351,262,44,31,141,243,184,135,41,346,214,240,36,139,350,348,180,331,15,144,259,271,323,52,103,354,197,258,272,103,99,139,275,278,349,197,35,252,275,81,179,184,114,84,159,278"
dtnsim.node[7].app.size = "200,50,100,100,50,200,100,50,200,50,500,200,50,50,50,100,500,100,500,200,100,100,200,200,50,50,100,50,100,50,100,50,50,100,200,50,100,200,200,50,50,200,500,500,500,50,200,100,100,200,100,100,200,500,500,200,50,50,100,200,500,200,50,50,200,50,500,200,500,200,500,500,50,100,100,200,500,500,200,50,200,50,50,200,200,50,100,500,100,200,200,200,200,200,200,50,500,50,200,100"
# Node 8 random traffic
dtnsim.node[8].app.enable = true
dtnsim.node[8].app.bundlesNumber = "8,38,35,47,42,33,7,27,31,35,8,47,18,43,38,19,44,20,18,22,42,29,47,32,37,23,28,6,23,38,1,22,45,33,30,21,48,11,4,26,2,45,3,6,39,28,35,28,13,26,39,3,13,9,7,8,39,3,48,31,49,1,9,47,33,6,46,35,34,3,1,24,33,3,46,9,48,13,14,40,26,11,10,3,18,2,8,26,25,45,21,25,46,48,19,48,16,23,2,28"
dtnsim.node[8].app.start = "45,8,42,4,93,34,23,18,19,23,96,47,89,46,56,96,100,23,56,11,64,59,76,80,58,66,21,64,38,52,20,67,5,1,95,67,41,81,58,3,43,10,99,53,31,75,88,29,92,22,21,83,44,40,88,53,80,15,21,25,95,90,61,12,37,12,25,47,73,57,88,44,56,70,66,67,47,57,91,70,99,75,69,14,90,46,34,100,95,66,88,54,44,45,38,59,76,90,44,54"
dtnsim.node[8].app.destinationEid = "26,341,25,275,263,21,11,177,61,289,73,66,322,283,15,218,89,336,27,346,264,115,114,22,164,134,27,74,45,348,219,188,342,201,72,260,179,357,318,164,176,2,200,146,62,77,149,154,60,263,201,75,13,61,291,45,163,207,154,92,77,46,129,247,258,60,337,128,320,23,356,203,95,135,286,317,177,112,176,330,268,337,2,47,65,316,219,50,211,358,358,162,134,92,97,34,227,328,293,268"
dtnsim.node[8].app.size = "100,200,200,200,100,50,100,50,100,100,200,100,100,500,500,100,50,200,100,500,100,500,50,100,500,200,50,50,200,200,500,100,100,500,50,200,200,100,200,100,500,200,100,100,200,200,200,500,50,50,200,200,200,500,500,100,100,200,50,200,100,100,100,50,200,200,500,500,100,100,200,100,50,50,200,100,500,200,500,100,50,100,500,200,50,100,100,100,100,50,500,50,100,50,200,100,200,50,50,50"
# Node 9 random traffic
dtnsim.node[9].app.enable = true
dtnsim.node[9].app.bundlesNumber = "39,29,48,20,40,28,7,21,6,41,19,23,7,3,20,29,39,14,4,12,29,6,19,33,43,2,19,2,50,19,21,8,22,15,46,47,11,48,44,12,25,17,3,18,21,31,27,2,48,23,47,29,11,37,15,18,26,46,47,2,23,17,23,3,6,22,44,7,22,26,47,1,13,8,14,12,4,42,41,22,15,27,24,48,18,14,2,12,4,20,5,26,44,44,18,45,39,28,13,1"
dtnsim.node[9].app.start = "35,71,67,70,68,64,53,25,46,15,23,29,10,22,92,26,24,68,51,40,15,42,39,39,20,71,19,47,2,4,40,95,91,44,65,93,46,77,57,63,28,55,71,82,26,52,6,65,77,94,58,78,95,8,67,23,32,89,42,6,11,46,88,64,40,88,52,92,56,47,91,90,64,83,22,8,80,3,79,19,99,22,98,27,40,37,17,2,90,7,10,25,99,97,94,83,61,3,26,48"
dtnsim.node[9].app.destinationEid = "50,318,145,135,247,256,55,232,347,207,168,88,140,11,143,110,328,270,255,113,151,35,113,128,57,19,130,36,261,40,237,174,322,118,167,146,91,75,138,139,109,73,103,282,351,275,195,72,328,179,91,143,110,29,138,131,358,339,301,103,287,184,93,271,287,99,244,263,79,277,318,119,5,87,152,179,136,223,214,60,234,308,60,37,18,256,131,73,28,271,43,247,279,159,113,28,169,204,275,294"
dtnsim.node[9].app.size = "50,200,100,50,100,100,100,500,50,50,500,500,50,500,50,50,500,100,500,500,500,200,500,500,500,500,500,200,100,200,500,100,100,500,50,200,500,100,50,100,200,100,50,50,100,50,200,100,500,200,50,200,100,500,500,100,500,100,500,500,100,50,100,50,500,50,100,200,50,100,500,50,500,500,50,50,200,50,50,100,200,500,500,50,500,500,50,50,200,500,50,200,200,200,50,200,100,200,200,500"
# Node 10 random traffic
dtnsim.node[10].app.enable = true
dtnsim.node[10].app.bundlesNumber = "27,33,11,48,32,42,40,35,30,43,43,11,27,50,19,11,20,44,34,43,48,31,22,22,43,32,7,46,12,28,26,5,15,34,6,25,7,32,31,44,39,14,9,17,29,25,19,32,8,50,40,28,23,44,15,34,5,4,19,46,4,43,18,17,32,41,44,45,35,38,30,13,20,15,7,16,28,46,16,4,23,10,27,5,9,3,3,32,46,5,35,49,30,43,31,10,40,9,39,34"
dtnsim.node[10].app.start = "62,68,92,80,77,87,91,8,34,8,2,66,26,55,63,82,56,68,3,69,56,15,92,38,83,4,82,77,20,51,41,88,2,8,68,70,53,48,59,50,11,75,92,51,36,54,92,32,93,3,16,60,84,23,49,46,30,84,49,28,61,45,6,6,43,74,49,16,19,84,28,46,47,10,81,46,71,76,56,37,4,2,10,82,76,87,75,25,16,65,51,92,76,91,89,75,19,45,56,16"
dtnsim.node[10].app.destinationEid = "285,99,218,60,114,86,274,324,8,2,276,67,218,142,14,73,131,345,8,9,118,304,174,176,224,19,42,8,164,349,323,330,233,73,32,169,206,271,238,129,267,253,156,42,227,14,125,183,150,126,114,184,313,212,67,346,40,356,60,237,316,123,355,327,205,48,88,87,74,72,212,314,311,88,84,34,224,302,74,204,352,223,71,207,300,335,130,250,3,276,114,27,306,250,236,114,296,312,113,245"
dtnsim.node[10].app.size = "200,100,50,50,500,200,50,200,500,500,500,500,200,50,500,500,200,500,100,200,500,500,100,100,50,100,50,100,500,200,100,50,100,200,50,50,50,50,50,100,200,200,100,50,200,500,100,100,50,500,200,50,50,50,50,200,500,100,500,500,500,50,500,100,50,100,500,200,200,50,50,50,100,100,50,200,50,100,500,100,200,500,500,500,500,500,500,200,100,200,200,200,50,50,100,50,200,200,100,500"
# Node 11 random traffic
dtnsim.node[11].app.enable = true
dtnsim.node[11].app.bundlesNumber = "35,32,14,12,31,29,43,22,11,35,49,50,20,50,1,1,27,9,48,48,41,14,20,46,31,10,16,36,50,43,42,17,42,33,46,45,6,11,27,2,9,50,49,5,25,29,26,2,40,50,36,14,26,23,35,4,42,6,10,6,30,44,25,10,32,30,27,46,12,5,8,45,3,37,25,16,3,14,19,10,43,50,11,27,14,36,11,14,33,39,45,41,36,12,25,29,43,16,26,5"
dtnsim.node[11].app.start = "2,85,68,90,73,30,73,89,19,82,66,58,74,67,54,90,62,54,92,62,3,49,71,46,9,18,62,73,63,32,26,69,26,47,81,59,57,78,85,76,5,93,57,26,57,24,58,45,80,79,5,38,67,54,25,45,77,33,25,75,13,48,58,17,100,81,67,17,17,3,67,16,60,10,70,90,35,30,75,34,3,32,94,21,61,76,17,98,98,75,2,26,35,47,2,60,79,89,50,11"
dtnsim.node[11].app.destinationEid = "1,117,111,103,166,216,156,173,314,64,209,119,315,166,330,37,58,10,243,33,143,167,216,32,74,217,28,135,316,226,331,69,93,176,91,66,222,246,346,261,142,356,21,110,347,256,81,185,167,42,30,241,163,86,114,119,192,147,343,37,77,359,191,15,86,103,305,323,294,108,273,16,358,262,273,242,316,41,256,289,106,238,189,50,266,198,88,183,130,72,265,30,23,267,347,128,91,210,115,18"
dtnsim.node[11].app.size = "500,100,100,100,50,50,100,200,200,200,200,50,200,50,500,200,200,100,100,200,500,200,50,500,50,500,100,50,200,500,50,100,200,200,100,200,50,200,200,500,200,200,50,500,500,500,50,500,500,50,50,100,200,500,200,500,50,200,100,500,100,200,100,500,200,50,200,50,200,200,200,200,100,50,200,100,200,100,100,100,50,200,500,100,200,500,100,500,200,100,200,200,50,500,100,100,500,50,50,200"
# Node 12 random traffic
dtnsim.node[12].app.enable = true
dtnsim.node[12].app.bundlesNumber = "26,29,49,32,43,34,23,38,42,34,45,39,47,46,18,22,16,50,12,30,35,13,21,13,42,27,23,9,12,21,48,33,33,46,10,30,45,27,16,32,9,1,20,20,20,17,50,34,40,47,9,44,35,42,7,18,32,21,4,41,39,11,11,16,11,23,11,18,31,38,27,13,19,35,12,1,39,12,11,22,46,12,24,45,36,26,11,11,16,28,44,7,43,8,18,35,3,19,20,7"
dtnsim.node[12].app.start = "13,10,69,17,60,63,96,59,88,9,78,49,23,70,96,84,7,6,2,9,71,47,26,39,37,67,99,11,55,80,63,34,3,90,96,61,94,34,76,76,96,21,6,75,65,94,48,19,72,79,5,41,8,87,38,91,71,70,94,66,58,81,95,32,96,16,60,43,46,64,59,27,47,87,26,21,64,10,4,100,8,68,3,5,85,7,70,70,56,24,36,72,47,31,69,60,34,47,35,66"
dtnsim.node[12].app.destinationEid = "160,114,222,81,26,145,27,211,197,316,316,132,180,149,257,236,206,343,20,209,93,189,32,142,5,357,193,261,210,113,51,126,197,135,112,284,341,209,143,284,219,39,129,315,36,303,103,83,197,246,84,190,13,234,336,317,2,92,122,269,35,216,298,172,217,201,60,26,206,182,114,319,36,185,23,158,332,132,358,6,171,228,87,54,135,201,231,39,316,141,101,182,214,157,18,120,254,327,92,51"
dtnsim.node[12].app.size = "200,50,200,50,100,50,100,50,200,200,200,100,200,500,50,50,100,100,50,500,200,500,200,100,100,50,50,500,100,500,50,500,50,500,500,100,100,50,500,200,100,200,100,200,100,200,50,500,50,50,50,500,500,50,200,500,500,200,100,500,500,50,50,100,50,50,50,100,100,50,500,50,100,50,500,500,200,50,500,200,500,50,100,100,200,50,50,50,500,200,100,500,100,50,50,200,200,50,200,50"
# Node 13 random traffic
dtnsim.node[13].app.enable = true
dtnsim.node[13].app.bundlesNumber = "22,35,32,2,20,5,20,35,50,41,2,38,31,50,7,3,15,48,2,47,18,2,22,38,17,35,39,11,34,45,14,7,15,8,30,49,22,36,15,34,36,34,43,33,6,1,6,22,19,38,16,32,41,13,2,9,7,36,4,12,45,20,21,33,41,19,42,26,42,8,17,11,32,12,24,35,20,16,14,34,17,30,13,7,20,42,8,6,16,31,27,19,9,47,40,24,30,30,7,12"
dtnsim.node[13].app.start = "62,2,29,38,52,39,46,80,1,91,97,81,100,27,60,85,12,6,92,79,24,76,19,36,2,86,44,88,64,62,77,16,33,24,50,39,82,100,51,17,42,66,50,27,32,46,26,89,79,32,9,71,3,52,79,3,46,95,65,1,28,27,69,62,18,59,58,30,84,84,99,14,63,90,82,72,27,44,67,24,93,4,19,87,23,63,84,40,51,64,100,24,29,61,13,17,56,59,72,63"
dtnsim.node[13].app.destinationEid = "3,119,347,311,46,128,163,303,154,172,119,184,24,252,357,247,339,291,32,232,288,217,227,45,83,325,291,35,332,343,140,296,311,277,216,93,253,303,80,64,235,119,17,352,66,305,122,138,33,60,313,271,118,7,36,37,74,206,359,269,127,339,23,331,218,176,62,120,338,350,123,337,98,98,110,1,251,299,142,127,124,338,333,44,208,180,290,231,184,260,46,125,337,164,172,296,286,264,74,73"
dtnsim.node[13].app.size = "50,500,100,100,500,500,100,200,200,50,100,50,200,500,500,100,200,200,50,500,200,100,100,100,50,50,500,100,200,200,50,500,100,50,200,200,500,200,500,50,200,200,100,100,50,100,200,500,500,50,200,100,500,50,500,200,500,100,500,500,100,500,100,50,100,500,100,200,500,500,500,50,500,200,500,500,50,200,200,200,50,50,500,100,200,100,200,100,100,200,50,50,50,100,100,50,50,200,100,500"
# Node 14 random traffic
dtnsim.node[14].app.enable = true
dtnsim.node[14].app.bundlesNumber = "8,41,46,31,48,31,44,6,21,12,5,35,43,16,46,3,44,1,2,7,15,2,32,14,13,35,43,43,39,43,23,34,13,44,10,29,31,4,14,48,24,31,37,10,16,7,12,22,43,36,16,27,5,18,26,41,48,21,33,37,8,12,2,35,34,22,42,8,38,7,18,42,50,29,23,19,45,34,19,21,26,11,3,2,46,15,32,43,10,16,32,4,9,19,25,29,9,11,42,39"
dtnsim.node[14].app.start = "87,22,63,96,49,5,60,36,49,54,3,41,94,16,77,57,5,71,40,92,67,23,20,62,3,68,38,7,17,84,26,75,65,67,72,17,74,27,30,93,26,57,92,59,30,90,28,92,32,47,95,26,52,78,20,73,83,68,2,22,70,50,52,47,40,23,40,5,42,46,54,3,93,79,37,22,10,14,54,41,11,91,14,10,71,36,83,73,56,68,15,31,89,33,25,5,66,26,65,92"
dtnsim.node[14].app.destinationEid = "105,70,160,119,173,208,262,270,339,204,133,236,354,152,29,53,276,323,83,101,16,288,23,320,356,268,153,180,124,8,265,172,230,183,37,205,327,37,250,17,34,72,106,172,220,171,315,65,26,109,99,254,216,26,109,336,328,222,3,195,230,116,318,44,90,193,338,101,268,162,92,46,138,35,219,256,118,356,239,226,351,334,208,353,154,243,52,6,238,352,16,146,202,202,117,352,311,304,331,264"
dtnsim.node[14].app.size = "500,50,500,50,200,500,200,100,50,200,100,500,100,200,500,200,200,200,200,200,200,200,50,100,100,200,500,100,200,100,200,500,100,100,50,200,200,500,50,100,200,100,200,100,500,500,100,200,500,50,100,500,200,50,50,100,200,50,50,200,500,50,100,100,500,200,200,50,500,200,200,50,500,50,50,50,200,100,500,200,500,100,50,200,50,200,500,50,100,100,200,500,100,100,100,500,100,200,200,200"
# Node 15 random traffic
dtnsim.node[15].app.enable = true
dtnsim.node[15].app.bundlesNumber = "19,43,2,7,31,10,29,40,1,15,37,17,29,20,4,30,49,16,2,9,11,31,38,27,6,45,9,14,15,28,9,1,40,35,5,28,32,35,28,25,30,34,15,33,47,17,43,50,5,1,13,39,37,7,30,32,50,49,28,21,22,36,26,6,10,31,13,37,23,10,35,7,30,45,50,4,8,23,28,37,15,21,37,23,6,35,32,3,16,27,18,39,13,49,18,28,13,12,40,40"
dtnsim.node[15].app.start = "60,66,61,73,90,29,64,19,74,18,38,78,65,10,25,28,96,43,83,64,35,98,30,77,84,43,100,43,38,77,100,8,54,68,36,98,36,61,75,71,87,48,13,3,78,13,70,12,78,70,11,29,10,63,76,28,65,18,4,100,28,31,18,12,74,46,41,30,18,66,80,30,19,25,82,39,6,83,78,65,39,47,22,54,37,27,39,25,24,71,38,92,83,2,64,63,85,88,2,18"
dtnsim.node[15].app.destinationEid = "67,256,331,182,68,305,113,325,335,228,17,88,262,291,153,284,96,254,50,253,280,78,176,128,244,138,294,20,360,42,161,199,318,139,235,73,295,137,85,195,110,76,291,167,217,167,302,122,318,321,75,260,138,342,202,14,92,280,232,238,209,196,197,322,342,203,57,230,269,107,147,179,100,82,33,214,56,70,170,100,328,180,302,154,216,7,128,315,298,230,294,230,345,142,48,239,24,329,131,35"
dtnsim.node[15].app.size = "100,50,500,500,50,100,100,500,500,100,500,500,200,100,200,50,500,100,50,200,100,200,50,50,50,200,500,200,50,500,500,500,50,200,50,200,200,50,500,200,500,200,100,100,200,200,500,200,50,50,200,100,500,100,200,50,200,500,200,100,200,500,100,500,50,50,200,50,50,500,50,500,500,50,50,100,200,200,200,200,50,200,200,500,500,100,100,200,200,100,100,200,200,500,200,200,500,200,50,100"
# Node 16 random traffic
dtnsim.node[16].app.enable = true
dtnsim.node[16].app.bundlesNumber = "21,31,25,23,8,25,41,31,2,25,16,24,25,10,8,18,40,37,5,28,1,14,49,45,6,24,39,22,39,30,17,37,4,28,37,43,6,9,9,12,43,45,13,22,2,24,35,18,43,12,15,2,24,26,9,26,40,43,49,6,46,11,29,23,10,3,5,3,19,45,11,23,8,12,31,48,38,15,40,29,20,26,48,31,9,22,8,48,40,47,18,13,22,28,47,43,19,19,29,17"
dtnsim.node[16].app.start = "57,64,22,23,18,27,37,91,41,5,36,13,72,57,23,89,5,97,3,23,63,44,34,64,70,9,25,10,93,38,82,40,99,41,56,69,94,44,89,84,12,76,85,5,26,91,6,68,42,80,97,59,48,76,29,1,93,71,35,87,89,62,1,19,61,52,59,70,61,44,6,76,46,11,17,37,81,62,64,34,48,68,17,82,2,7,31,71,82,58,94,64,65,90,46,74,20,37,58,64"
dtnsim.node[16].app.destinationEid = "124,231,159,264,335,21,99,304,215,289,307,326,10,193,274,127,283,24,248,302,227,86,360,63,211,56,274,69,294,117,79,47,290,178,335,68,135,324,324,99,196,118,161,90,33,341,341,221,341,87,139,3,358,135,150,202,358,216,162,304,318,158,139,158,335,214,135,215,282,113,120,101,183,53,236,103,46,60,268,168,201,46,230,203,3,38,124,340,264,145,159,228,1,345,159,344,284,172,257,22"
dtnsim.node[16].app.size = "50,100,500,100,500,500,100,500,200,500,500,100,200,500,100,100,50,100,200,500,50,100,50,50,100,50,200,50,100,500,500,200,500,100,100,500,500,200,100,200,100,50,100,50,50,200,200,50,500,100,200,200,200,50,200,500,50,50,200,200,500,50,500,200,500,200,50,200,500,50,500,50,200,50,100,500,200,500,100,50,50,200,200,100,50,200,500,100,500,50,100,500,200,100,50,200,500,500,200,200"
# Node 17 random traffic
dtnsim.node[17].app.enable = true
dtnsim.node[17].app.bundlesNumber = "35,43,20,47,16,12,20,29,12,45,2,10,34,47,49,48,22,39,3,5,24,43,46,37,24,17,8,47,18,32,19,13,21,31,43,30,12,46,4,26,34,21,17,8,32,25,29,20,36,8,15,14,7,3,15,13,21,30,26,12,24,38,41,17,41,6,23,13,7,49,41,23,40,14,14,34,13,5,35,42,38,36,26,42,25,35,6,34,36,2,6,7,15,45,24,6,31,10,6,24"
dtnsim.node[17].app.start = "76,41,19,1,51,56,51,66,4,97,64,67,74,32,3,59,72,92,21,43,24,82,89,23,84,63,51,87,5,7,12,30,87,30,14,100,62,50,56,70,42,99,89,40,51,6,52,90,35,64,68,28,8,97,81,12,89,86,24,54,38,84,64,94,85,71,48,68,18,57,17,95,91,4,51,90,84,12,58,16,57,53,92,93,93,39,67,12,83,10,35,50,80,79,59,89,47,53,46,82"
dtnsim.node[17].app.destinationEid = "234,175,27,303,15,171,130,153,206,167,47,166,168,236,87,130,131,181,81,12,160,303,264,264,205,108,331,254,168,212,176,282,353,31,141,111,142,112,236,28,133,274,243,19,110,293,121,187,334,261,299,270,98,39,126,11,340,184,103,110,222,296,256,197,77,63,357,191,332,90,241,168,171,170,219,3,168,163,262,6,348,42,335,83,279,158,55,65,255,62,343,85,258,106,118,66,186,30,319,210"
dtnsim.node[17].app.size = "100,200,100,200,50,50,50,50,50,50,100,500,50,100,500,50,500,50,50,200,50,200,200,100,50,500,50,200,100,50,200,500,200,500,500,50,100,500,500,200,200,100,100,500,50,500,50,50,100,50,200,200,50,100,200,500,100,500,100,500,100,200,500,500,50,200,50,200,50,100,200,500,200,500,500,500,50,100,500,50,100,200,100,500,100,50,200,200,100,50,100,500,50,500,50,100,500,50,50,500"
# Node 18 random traffic
dtnsim.node[18].app.enable = true
dtnsim.node[18].app.bundlesNumber = "20,26,23,35,5,20,20,10,5,46,19,12,43,11,24,40,3,21,3,16,40,50,21,46,13,11,32,42,15,46,33,43,25,31,9,19,27,9,4,42,19,26,15,37,5,1,3,7,50,1,21,31,39,33,30,25,1,21,32,23,9,5,4,29,34,5,41,32,10,12,40,16,18,15,19,32,25,36,22,21,9,47,14,2,6,13,21,2,44,34,4,32,1,27,13,40,32,5,35,41"
dtnsim.node[18].app.start = "36,18,91,82,77,70,79,10,36,26,54,61,13,96,46,43,28,62,64,84,48,25,73,10,57,62,96,14,47,25,94,89,27,75,23,4,21,69,90,99,35,76,26,47,73,72,29,12,86,20,18,81,66,37,56,11,76,68,41,67,21,63,81,12,62,71,68,73,9,93,66,100,88,1,93,64,81,24,18,79,25,38,82,47,15,10,21,21,7,62,34,58,80,99,25,66,84,55,3,4"
dtnsim.node[18].app.destinationEid = "20,191,360,218,339,208,135,297,301,80,214,108,169,354,241,9,261,160,196,252,75,226,127,14,160,76,104,355,289,33,198,276,248,337,226,143,131,109,83,250,291,139,169,182,193,212,139,324,318,7,336,39,268,68,319,255,183,203,119,60,253,15,255,58,290,188,143,360,159,298,16,355,62,159,262,327,182,155,312,214,239,303,28,155,347,89,319,129,159,185,122,50,6,333,48,26,232,65,59,136"
dtnsim.node[18].app.size = "100,50,100,50,50,200,500,50,100,50,200,50,500,500,200,50,200,50,500,50,500,100,100,200,500,50,200,200,500,50,50,100,200,200,50,500,200,50,200,50,100,100,50,200,200,500,100,100,500,200,50,200,50,200,500,50,50,200,500,500,50,200,500,500,100,200,500,50,200,100,500,200,500,50,100,100,500,50,50,500,50,500,200,100,200,200,200,200,100,50,50,100,200,200,50,50,100,200,500,200"
# Node 19 random traffic
dtnsim.node[19].app.enable = true
dtnsim.node[19].app.bundlesNumber = "13,4,32,20,32,8,37,11,20,46,8,34,18,31,27,46,47,5,16,27,32,27,5,21,41,35,22,38,12,13,32,14,29,20,12,34,49,8,1,11,35,50,26,29,7,17,22,38,20,1,37,32,34,42,34,34,14,19,31,17,6,5,21,4,32,47,4,10,33,42,13,48,9,1,32,2,1,15,32,6,33,30,3,10,31,44,22,5,36,5,5,40,30,39,19,23,11,23,49,18"
dtnsim.node[19].app.start = "30,46,5,47,4,50,34,60,73,69,91,27,41,96,74,64,72,1,84,64,11,12,56,53,8,94,21,23,42,61,55,12,24,94,43,50,48,53,93,98,42,70,84,74,28,64,58,95,9,9,6,87,22,11,21,58,11,63,62,69,1,44,15,4,36,3,23,83,92,3,54,97,11,41,50,16,79,64,32,23,88,15,33,62,45,70,41,92,19,39,24,5,62,74,9,71,58,55,76,14"
dtnsim.node[19].app.destinationEid = "202,178,102,336,58,332,152,16,279,222,184,325,182,334,148,209,198,271,46,325,257,272,36,172,288,247,194,25,272,31,209,76,222,176,71,97,165,275,150,68,35,252,149,342,114,17,223,127,190,64,266,339,126,221,29,273,356,291,187,317,8,73,311,65,58,82,165,273,267,332,101,24,286,134,271,305,8,1,300,37,257,78,296,39,222,18,277,277,106,323,60,261,306,220,267,106,310,68,42,194"
dtnsim.node[19].app.size = "200,50,50,500,500,200,200,100,100,500,500,500,50,100,100,50,200,50,50,100,200,200,200,50,50,200,50,200,500,500,100,500,50,100,500,500,500,50,500,200,100,200,50,100,50,500,100,200,50,200,100,50,50,100,100,500,200,500,200,100,500,50,50,200,100,200,50,50,500,50,200,100,100,200,200,500,500,500,100,200,100,200,100,50,500,50,500,50,50,50,100,200,200,100,500,500,200,100,100,50"
# Node 20 random traffic
dtnsim.node[20].app.enable = true
dtnsim.node[20].app.bundlesNumber = "21,47,10,9,10,4,10,3,28,17,13,31,13,13,16,17,16,12,49,49,4,11,20,7,15,3,41,19,26,44,5,16,30,21,34,46,25,32,32,48,15,24,34,26,25,14,46,43,23,48,25,23,24,9,6,43,11,28,6,31,19,50,7,14,3,20,22,42,15,24,1,19,6,2,48,1,5,32,8,26,11,8,9,37,32,41,21,20,50,23,5,25,17,7,13,32,38,36,21,50"