[General]
network = src.dtnsim										
repeat = 1
allow-object-stealing-on-deletion = true

# Simulation end time
sim-time-limit = 84600s

# Nodes quantity (identifiers (EiDs) matches their index, EiD=0 is ignored)			
dtnsim.nodesNumber = 240
dtnsim.node[*].icon = "satellite"

# Nodes's failure rates
dtnsim.node[*].fault.enable = false
dtnsim.node[*].fault.meanTTF = 0s
dtnsim.node[*].fault.meanTTR = 0s

# Mobility
dtnsim.node[*].hasMobility = true
dtnsim.node[*].norad.satIndex = parentIndex()
dtnsim.node[*].norad.satName = "sat"
**.updateInterval = 20s
**.numOfSats = 240
**.satPerPlane = 12
**.altitude = 540
**.planes = 20
**.phaseOffset = 11

dtnsim.node[*].dtn.routing = "antop"
dtnsim.node[*].dtn.printRoutingDebug = true

# --- Random Traffic Configuration ---
# Node 1 random traffic
dtnsim.node[1].app.enable = true
dtnsim.node[1].app.bundlesNumber = "14,17,39,33,29,44,9,39,4,15,35,33,25,18,19,6,45,16,30,26,12,50,28,28,44,1,25,19,28,31,10,38,9,33,33,27,22,7,49,20,37,15,27,49,26,35,15,28,34,47,26,3,35,16,18,12,7,11,41,4,25,50,2,31,44,25,6,47,41,24,20,38,40,27,11,16,15,40,13,16,41,28,45,23,45,9,28,14,10,40,19,7,41,46,9,35,16,14,50,25"
dtnsim.node[1].app.start = "30,46,75,64,16,21,38,94,6,92,46,57,33,52,51,32,58,91,83,33,17,64,17,92,100,76,25,80,58,79,56,36,88,56,57,82,58,89,41,95,53,93,49,23,76,59,36,32,94,20,77,85,23,34,87,82,76,66,12,32,12,27,49,42,18,97,9,13,100,55,23,55,26,95,18,48,7,88,46,25,62,37,73,67,30,54,27,57,80,83,99,37,15,97,58,49,69,49,65,36"
dtnsim.node[1].app.destinationEid = "199,202,218,193,72,161,156,132,174,120,229,85,195,140,218,48,128,61,13,6,57,185,211,157,143,132,85,154,66,145,23,7,155,128,174,109,78,142,193,7,179,128,214,226,187,41,5,111,64,169,225,111,17,2,232,178,114,184,34,57,29,86,182,155,142,204,210,117,14,130,75,24,229,58,200,25,64,137,183,76,113,205,112,137,136,153,102,172,218,224,94,231,7,165,215,71,3,235,98,46"
dtnsim.node[1].app.size = "50,500,200,50,200,500,500,500,200,200,100,500,500,200,100,500,50,500,100,50,200,200,200,100,500,50,500,200,500,200,200,200,200,200,100,50,100,200,200,200,200,50,50,200,100,200,100,500,50,500,500,50,200,200,200,100,500,500,500,50,500,100,50,200,200,500,200,500,200,200,100,50,500,100,50,500,50,200,500,50,500,500,50,50,500,200,200,500,200,50,200,50,200,200,100,200,500,200,200,200"
# Node 2 random traffic
dtnsim.node[2].app.enable = true
dtnsim.node[2].app.bundlesNumber = "49,18,5,20,26,30,18,15,22,49,41,47,10,19,31,26,13,30,31,5,28,43,4,49,25,12,13,40,34,46,5,24,35,44,17,31,1,22,43,21,27,7,43,24,41,2,37,35,32,30,36,6,41,34,44,43,7,2,25,41,30,41,40,45,38,49,13,10,5,10,19,37,11,28,21,34,25,28,40,46,12,33,50,2,39,8,35,42,20,25,8,40,20,42,6,27,34,26,3,46"
dtnsim.node[2].app.start = "47,97,98,10,49,39,10,40,46,48,70,15,61,51,28,74,16,16,97,29,42,88,48,81,74,96,31,41,8,59,59,28,12,80,93,60,57,43,23,31,18,93,42,89,33,80,16,39,71,95,4,32,36,77,93,97,37,92,87,1,69,59,50,13,95,73,3,85,19,14,74,76,4,9,76,88,1,29,65,36,64,23,92,78,14,45,47,71,30,72,54,4,4,47,10,43,51,21,43,100"
dtnsim.node[2].app.destinationEid = "155,113,143,196,110,5,197,52,126,217,211,105,206,225,148,52,127,198,233,128,70,239,83,89,201,47,119,71,102,184,222,155,41,155,165,87,64,20,76,5,6,149,57,85,235,238,69,101,167,128,199,227,133,183,64,91,13,204,153,90,13,18,36,35,234,230,95,105,49,42,52,87,38,12,129,76,56,168,120,224,185,122,121,6,219,161,18,9,214,138,116,111,217,75,204,236,183,101,169,240"
dtnsim.node[2].app.size = "100,500,500,50,50,500,50,200,100,200,100,50,200,200,500,50,200,500,200,500,200,200,200,100,50,200,500,50,200,500,200,100,500,200,50,200,500,50,200,50,100,100,500,200,50,100,200,100,200,100,50,500,100,500,50,200,500,100,100,500,500,50,500,500,500,100,100,50,50,50,500,50,200,50,50,200,100,100,100,500,500,500,100,500,100,200,500,500,500,100,50,500,200,500,500,100,50,500,50,100"
# Node 3 random traffic
dtnsim.node[3].app.enable = true
dtnsim.node[3].app.bundlesNumber = "18,9,49,28,32,38,29,45,24,16,43,50,32,42,5,1,43,39,22,11,10,1,34,3,41,22,3,21,1,24,46,46,23,50,47,15,36,9,35,35,21,17,20,22,7,17,7,15,39,26,12,12,21,10,15,32,7,30,26,18,32,2,27,35,21,8,18,49,1,30,43,9,36,32,32,3,39,5,29,43,18,10,43,39,33,5,8,7,30,18,15,39,43,4,2,12,12,5,47,32"
dtnsim.node[3].app.start = "77,40,64,72,92,68,56,36,23,76,93,33,50,30,37,21,58,44,68,22,97,85,91,99,38,36,32,20,65,15,78,41,17,73,67,43,19,87,84,23,86,50,90,42,98,42,92,58,97,12,1,20,17,3,50,93,19,100,72,16,17,33,16,75,70,52,69,35,73,68,18,49,10,17,13,5,33,18,10,86,42,17,65,6,57,57,86,63,70,95,71,15,16,21,78,87,27,37,72,51"
dtnsim.node[3].app.destinationEid = "74,66,8,104,72,213,138,46,220,224,28,112,179,117,15,116,96,234,235,223,152,158,2,160,134,108,181,178,64,1,220,134,122,81,68,132,66,180,117,102,173,234,172,42,50,186,240,161,43,193,229,95,181,25,16,190,122,189,117,237,228,53,19,215,173,104,85,226,185,128,113,17,170,220,228,96,187,71,113,221,138,13,125,39,227,149,59,108,227,182,230,207,107,207,131,163,109,16,88,108"
dtnsim.node[3].app.size = "50,100,200,100,100,50,200,100,50,100,500,500,500,200,100,200,500,50,500,500,500,200,50,500,100,50,50,100,100,500,50,50,200,50,50,50,50,200,100,200,100,500,50,200,50,200,100,500,500,100,100,50,100,50,100,500,200,200,100,200,50,50,50,200,100,100,50,500,100,200,50,50,100,100,100,50,500,500,50,200,500,100,50,200,100,200,200,100,200,50,500,200,50,50,500,200,100,500,50,500"
# Node 4 random traffic
dtnsim.node[4].app.enable = true
dtnsim.node[4].app.bundlesNumber = "27,44,13,10,35,21,7,45,7,13,29,8,7,24,6,4,32,10,17,30,11,50,44,10,33,25,37,45,2,3,25,27,34,46,2,27,46,27,27,47,18,19,24,46,12,24,37,20,22,3,27,18,2,41,40,16,7,36,22,16,48,19,40,42,9,26,29,2,36,21,37,3,30,6,21,30,14,27,1,11,50,28,50,47,2,48,15,20,31,39,33,25,9,45,13,23,49,15,23,29"
dtnsim.node[4].app.start = "45,51,56,92,88,35,47,60,94,5,13,71,92,23,25,36,12,49,92,51,5,8,14,7,40,76,71,28,47,81,83,99,45,54,26,44,95,57,30,77,59,46,93,80,61,71,83,8,16,76,42,20,46,48,67,97,70,74,66,4,8,24,21,99,8,14,46,15,49,92,80,41,86,42,6,47,60,100,38,74,29,94,65,87,73,4,13,7,52,70,14,10,61,22,76,60,54,95,70,49"
dtnsim.node[4].app.destinationEid = "137,97,32,23,62,101,78,60,163,183,56,217,76,224,235,47,225,31,89,81,41,93,232,2,161,106,28,120,122,37,181,221,27,58,194,174,100,54,42,217,95,136,193,198,214,75,179,119,27,202,71,156,114,212,237,193,175,127,190,92,169,152,39,198,239,87,180,129,158,70,68,168,122,140,67,129,111,86,128,57,106,44,240,124,110,101,27,191,7,61,122,189,192,229,54,62,170,69,25,171"
dtnsim.node[4].app.size = "50,200,100,200,100,100,500,200,500,500,200,50,100,50,200,200,500,100,50,200,100,200,100,50,200,50,100,50,100,500,200,100,500,50,50,200,200,100,50,500,50,200,50,500,100,100,500,50,50,200,500,100,200,50,500,500,50,200,500,50,500,200,500,50,500,500,100,200,50,500,50,200,100,100,100,500,500,100,500,500,200,100,200,100,200,200,100,100,200,200,500,100,50,100,200,200,50,50,50,200"
# Node 5 random traffic
dtnsim.node[5].app.enable = true
dtnsim.node[5].app.bundlesNumber = "37,34,48,2,38,1,35,47,21,37,28,6,1,50,30,20,6,9,31,34,29,19,1,40,48,38,30,28,43,27,34,47,38,16,19,10,27,22,45,16,7,18,27,32,30,48,4,40,22,31,37,12,4,37,16,3,44,24,43,34,50,43,5,13,19,47,4,4,27,9,15,50,41,43,1,27,10,31,12,17,45,46,10,47,42,34,28,40,43,6,39,45,28,29,41,18,9,29,39,29"
dtnsim.node[5].app.start = "87,14,52,47,82,85,8,51,77,88,23,28,51,66,59,59,48,29,87,6,45,95,52,87,8,3,1,29,1,62,57,38,8,33,28,78,8,42,60,5,97,75,12,59,48,16,72,37,84,10,80,87,92,94,90,65,88,13,42,86,60,82,86,22,50,89,18,30,29,5,12,36,52,39,32,39,72,74,61,28,91,92,1,88,42,24,34,58,58,47,7,88,30,79,14,74,45,39,37,1"
dtnsim.node[5].app.destinationEid = "161,144,99,55,151,38,235,12,18,128,102,222,62,88,95,113,235,143,192,175,181,40,57,177,162,156,19,142,25,227,99,34,200,28,131,169,218,24,194,36,73,157,153,40,121,66,122,89,94,132,119,24,217,69,184,172,149,54,91,15,58,84,160,227,13,60,186,25,72,41,114,211,119,207,179,47,83,218,232,130,103,165,84,224,65,185,51,97,186,173,183,19,207,112,2,152,25,23,82,110"
dtnsim.node[5].app.size = "200,500,200,500,500,100,100,50,100,100,200,50,50,200,200,200,50,100,50,100,200,200,50,500,50,500,200,200,200,100,200,50,200,200,500,200,100,500,200,500,500,200,500,50,100,200,200,500,200,100,100,200,500,500,500,500,100,50,50,200,200,200,100,500,200,100,200,200,100,200,50,100,200,50,500,50,100,200,50,100,100,50,200,200,50,100,500,100,100,100,50,200,100,200,500,50,500,50,200,500"
# Node 6 random traffic
dtnsim.node[6].app.enable = true
dtnsim.node[6].app.bundlesNumber = "41,38,36,15,6,7,44,26,26,15,23,1,19,38,49,11,4,34,37,9,7,30,42,20,9,12,26,1,32,27,50,32,18,34,14,36,30,27,40,26,29,21,31,39,8,47,5,9,7,20,21,8,23,23,37,34,22,21,39,47,22,43,22,48,18,41,7,40,38,21,41,19,34,42,31,13,30,20,20,40,39,41,48,6,43,17,18,1,27,36,43,24,17,28,20,24,46,14,42,47"
dtnsim.node[6].app.start = "68,54,82,6,24,56,64,77,63,18,78,79,6,50,39,82,33,61,48,95,35,56,52,46,18,29,57,91,79,84,53,44,82,100,42,99,76,97,43,59,11,72,53,52,30,19,64,27,32,44,2,89,7,5,48,15,49,11,46,72,13,5,17,31,59,94,51,76,58,97,18,55,57,82,76,8,58,96,5,76,89,25,75,60,65,93,27,14,58,94,38,45,79,8,45,68,77,90,58,85"
dtnsim.node[6].app.destinationEid = "77,177,160,141,220,240,125,110,27,76,233,116,23,218,199,74,50,201,170,19,133,142,18,31,79,146,162,179,72,143,60,59,81,89,12,218,193,149,213,83,31,27,31,8,168,80,179,92,54,194,77,233,57,194,119,11,83,17,18,185,127,96,180,141,126,93,209,205,110,222,195,155,131,168,148,199,47,143,104,58,55,124,108,39,23,164,144,107,25,100,154,184,119,133,14,133,101,220,190,49"
dtnsim.node[6].app.size = "100,500,100,50,50,500,500,200,500,50,100,100,200,50,50,50,100,50,500,500,200,200,200,500,100,100,50,500,50,200,100,50,200,200,200,500,50,100,50,50,100,200,50,50,100,50,200,500,500,500,500,500,50,500,100,100,500,50,200,50,200,200,50,200,50,500,50,500,50,200,200,500,200,200,500,100,100,100,50,200,200,500,500,100,200,500,500,100,500,50,50,50,500,500,500,200,50,500,200,100"
# Node 7 random traffic
dtnsim.node[7].app.enable = true
dtnsim.node[7].app.bundlesNumber = "4,48,7,42,48,13,25,48,28,19,21,21,43,14,30,13,48,34,28,14,8,20,27,39,8,11,24,39,32,10,26,49,20,49,12,25,38,7,18,30,13,32,39,17,34,14,5,40,45,24,7,24,7,6,1,20,18,9,46,34,47,49,22,3,9,30,19,44,6,37,50,35,40,29,14,29,30,1,49,29,37,17,15,7,42,50,23,40,22,9,35,17,31,40,27,1,28,13,30,45"
dtnsim.node[7].app.start = "73,21,17,11,72,69,10,100,29,7,86,14,11,84,69,21,23,19,98,38,57,28,73,28,81,47,60,13,80,71,17,69,24,71,27,53,2,8,13,62,70,20,10,71,88,36,11,27,72,27,72,82,63,30,82,52,49,61,78,70,59,15,12,34,28,38,82,24,34,47,56,59,51,57,71,54,84,44,100,61,62,30,20,91,59,69,12,14,56,18,55,66,44,30,99,11,3,62,54,98"
dtnsim.node[7].app.destinationEid = "36,28,170,84,189,104,79,183,209,40,24,70,161,156,75,163,33,205,116,131,133,204,80,140,197,217,152,62,185,180,185,164,224,17,41,173,159,199,92,126,85,168,172,84,174,20,107,130,21,24,225,143,140,142,86,99,116,182,12,158,227,75,91,174,30,31,123,187,21,140,85,16,4,45,23,108,151,147,97,10,138,39,203,73,24,223,141,44,71,152,15,2,35,127,199,42,192,18,57,162"
dtnsim.node[7].app.size = "50,500,50,200,100,200,50,100,200,200,100,200,100,100,500,500,100,500,500,100,500,500,200,500,500,50,100,200,500,100,500,500,100,500,50,500,100,100,500,50,100,200,500,500,500,100,500,50,50,50,200,50,200,100,500,200,200,100,50,50,500,50,100,100,500,500,100,50,500,500,500,100,200,500,100,50,100,100,500,500,100,200,50,100,500,100,50,500,100,50,50,500,200,200,500,500,100,50,100,50"
# Node 8 random traffic
dtnsim.node[8].app.enable = true
dtnsim.node[8].app.bundlesNumber = "3,14,40,10,42,38,24,50,23,2,6,42,50,12,1,15,40,17,6,49,2,5,43,50,34,37,33,23,1,6,16,14,2,24,47,24,34,40,15,46,35,43,14,22,38,38,4,16,30,6,47,11,8,10,49,47,2,35,35,36,12,7,19,35,29,17,29,24,3,22,29,24,15,11,17,37,20,23,6,28,17,31,32,21,42,26,48,11,31,2,6,36,7,6,23,19,11,50,11,3"
dtnsim.node[8].app.start = "84,39,94,9,11,76,91,29,27,36,84,10,45,73,47,77,50,7,61,27,91,62,2,26,46,44,98,81,71,70,37,40,76,92,83,13,67,21,15,83,49,6,69,21,25,34,89,14,77,20,55,82,31,5,72,33,76,63,56,20,14,92,24,9,33,90,50,47,90,100,74,39,9,15,99,16,84,40,100,13,77,2,35,99,57,56,56,44,41,10,29,35,48,28,14,97,60,2,10,14"
dtnsim.node[8].app.destinationEid = "122,167,164,52,109,53,110,36,22,75,93,51,121,94,41,49,215,181,199,2,224,95,221,119,202,100,144,151,34,194,3,149,43,138,35,196,96,29,66,22,236,44,2,201,60,95,70,35,223,131,116,200,77,93,63,91,9,81,134,3,228,120,123,43,239,42,6,227,167,138,220,63,157,212,24,13,1,174,66,43,120,235,213,131,70,181,24,145,58,146,146,99,148,152,226,177,31,58,13,201"
dtnsim.node[8].app.size = "100,200,100,100,500,50,100,50,200,500,500,200,100,100,50,50,100,500,500,200,500,500,200,100,100,50,200,100,500,500,200,50,500,500,500,200,50,200,100,200,200,200,200,200,500,100,50,500,200,200,200,100,50,200,500,50,200,50,100,100,200,500,500,50,500,100,100,500,100,100,100,100,200,100,200,500,500,50,100,500,100,100,200,50,500,100,200,50,200,100,200,100,500,200,50,100,100,200,200,200"
# Node 9 random traffic
dtnsim.node[9].app.enable = true
dtnsim.node[9].app.bundlesNumber = "41,15,37,6,31,38,10,19,3,6,35,44,19,48,50,43,14,50,12,13,27,36,13,1,44,27,14,25,11,4,42,18,28,11,3,4,5,1,26,34,4,20,23,31,3,33,11,1,31,3,4,46,43,43,14,49,42,1,19,7,25,42,42,31,39,43,23,2,33,37,50,10,16,1,36,22,7,39,4,41,29,1,40,33,1,46,45,49,19,13,29,31,24,35,40,33,39,16,31,46"
dtnsim.node[9].app.start = "92,1,72,67,6,38,23,68,92,46,4,12,33,5,43,88,24,5,3,46,62,20,96,39,35,61,64,50,9,56,97,99,26,92,25,40,44,42,14,87,39,89,13,38,85,14,80,96,11,28,74,89,12,27,28,2,60,22,41,81,33,64,72,11,2,47,76,60,25,31,74,92,7,56,16,88,62,79,5,57,79,51,30,99,92,77,21,26,76,55,65,33,64,11,69,23,29,37,50,7"
dtnsim.node[9].app.destinationEid = "211,217,32,206,109,177,200,139,42,193,17,149,237,141,114,159,59,54,79,123,149,6,52,185,106,231,115,38,74,13,194,65,11,66,154,178,93,192,26,13,200,234,76,106,72,116,177,16,224,211,60,27,129,80,231,154,188,40,215,102,162,91,96,43,98,196,180,101,57,92,110,134,216,154,81,214,80,158,54,33,207,232,4,46,178,210,204,5,24,55,113,204,49,40,128,232,90,179,64,86"
dtnsim.node[9].app.size = "500,50,50,200,100,200,200,100,200,50,200,500,100,100,50,50,50,50,200,50,500,100,100,200,50,500,200,200,500,100,100,100,500,500,200,100,50,100,100,50,100,50,200,100,50,200,100,500,200,200,50,200,200,500,100,200,200,50,500,200,500,500,500,50,500,50,100,200,500,50,500,500,200,100,100,50,200,50,200,200,200,100,500,200,100,200,50,100,200,100,500,200,100,100,200,50,500,50,200,100"
# Node 10 random traffic
dtnsim.node[10].app.enable = true
dtnsim.node[10].app.bundlesNumber = "21,41,36,50,14,16,7,29,45,23,8,9,39,1,10,48,23,7,5,25,29,33,6,30,35,16,3,18,1,24,24,9,45,40,10,30,42,7,10,3,8,43,37,7,26,5,34,17,7,6,17,13,46,12,11,20,46,41,7,45,44,44,49,34,42,29,35,40,24,35,26,13,12,6,12,44,29,16,42,40,47,6,46,23,7,21,26,33,28,16,29,27,8,43,7,20,7,14,1,36"
dtnsim.node[10].app.start = "94,87,42,46,82,87,33,50,26,28,42,33,77,83,10,65,54,25,40,97,14,49,62,51,33,30,44,59,51,79,72,91,74,17,29,31,19,10,27,43,94,88,49,26,46,5,84,15,3,6,6,97,99,24,60,8,27,33,53,29,57,86,81,58,9,6,25,74,81,53,61,14,54,46,13,55,56,39,91,57,41,56,31,70,58,49,63,31,22,40,45,85,67,47,61,39,67,77,8,43"
dtnsim.node[10].app.destinationEid = "191,175,92,70,215,211,64,24,82,8,59,80,240,153,16,110,46,14,53,194,128,225,37,230,196,228,95,107,89,62,96,62,37,159,103,74,223,31,8,216,40,219,60,163,221,213,44,177,215,52,199,102,37,100,195,81,186,42,77,97,68,192,157,62,28,186,36,228,201,104,34,193,15,75,64,22,125,9,147,112,73,238,183,215,120,54,143,6,65,131,142,215,154,228,198,191,145,61,225,67"
dtnsim.node[10].app.size = "100,500,200,50,500,50,50,200,100,200,500,200,50,200,500,100,100,50,100,500,100,500,500,200,100,500,100,200,50,50,200,500,50,50,200,100,100,100,500,50,200,50,100,500,500,500,100,50,500,200,200,200,500,50,100,100,500,100,500,500,200,200,50,200,500,200,500,500,50,200,200,200,500,100,50,200,200,200,50,100,50,50,200,200,50,200,50,50,100,200,500,50,200,200,50,200,500,100,200,500"
# Node 11 random traffic
dtnsim.node[11].app.enable = true
dtnsim.node[11].app.bundlesNumber = "13,47,38,36,2,39,3,39,15,42,8,3,48,8,33,31,25,44,49,37,28,33,3,37,49,13,13,36,28,4,23,15,27,2,47,42,44,16,5,29,34,12,39,27,5,44,39,21,12,39,10,21,43,31,38,46,15,23,34,2,39,23,12,43,28,23,40,30,43,11,35,1,19,31,29,15,8,10,47,34,44,20,30,48,10,49,11,1,44,37,28,10,21,14,37,39,9,24,21,14"
dtnsim.node[11].app.start = "24,51,84,41,74,66,93,97,46,58,61,52,69,40,27,36,61,10,22,79,32,10,2,87,66,20,100,46,59,70,39,62,36,46,48,46,9,31,25,23,47,99,97,39,16,94,72,77,77,92,90,92,23,34,65,61,50,76,33,91,34,56,29,86,10,92,36,16,62,40,72,17,69,85,66,24,81,99,63,77,4,57,74,24,20,84,19,81,24,28,85,43,84,60,18,17,63,30,54,23"
dtnsim.node[11].app.destinationEid = "202,92,7,45,76,87,83,224,95,74,57,79,220,96,202,16,226,110,185,4,219,131,40,101,143,177,34,161,98,35,113,47,42,13,139,185,233,215,151,35,41,187,172,75,187,171,157,65,98,92,93,104,179,81,179,103,87,192,79,233,148,159,15,126,9,231,150,139,19,90,184,221,208,41,223,51,118,144,87,52,73,55,163,175,49,7,52,177,179,168,10,84,165,121,126,75,63,122,83,73"
dtnsim.node[11].app.size = "500,500,200,100,50,100,50,200,100,100,50,100,500,500,200,500,50,200,50,100,200,200,200,50,100,100,500,200,200,500,100,50,50,50,100,200,50,500,200,50,50,200,50,500,200,200,100,100,50,50,500,100,200,50,50,200,100,50,50,100,200,200,500,50,50,100,500,100,500,100,50,200,500,200,500,200,500,100,500,100,200,100,200,500,50,500,50,200,500,50,100,100,200,500,500,500,500,200,200,200"
# Node 12 random traffic
dtnsim.node[12].app.enable = true
dtnsim.node[12].app.bundlesNumber = "9,24,28,26,25,25,45,24,22,49,45,35,22,12,46,43,36,38,44,47,12,27,33,7,21,12,41,16,33,33,40,22,30,38,2,49,40,13,17,16,42,4,22,16,36,44,33,13,46,40,23,39,50,18,37,27,3,31,28,39,4,35,5,23,49,49,12,24,41,2,18,46,7,6,31,41,45,15,34,14,3,20,37,47,42,4,37,13,34,34,31,44,13,30,13,26,1,16,22,20"
dtnsim.node[12].app.start = "86,57,91,84,51,55,43,42,26,57,17,55,14,56,86,63,25,42,14,32,94,81,95,66,36,35,11,3,37,15,85,47,10,77,44,81,59,64,14,37,69,55,83,43,77,83,91,10,45,24,12,50,46,63,49,69,21,61,73,2,12,36,6,22,47,23,47,60,49,31,54,76,91,52,70,16,10,82,51,83,98,31,30,27,87,17,35,99,23,57,89,80,30,10,83,46,76,83,11,100"
dtnsim.node[12].app.destinationEid = "193,215,158,85,32,105,83,37,75,41,114,26,68,144,167,56,199,225,213,42,2,42,213,147,48,199,43,133,165,4,30,206,1,175,26,64,139,158,87,46,194,18,181,41,14,120,127,45,73,200,75,87,11,69,20,61,33,83,192,237,40,8,167,169,89,239,180,144,69,204,213,205,108,97,106,102,137,49,57,170,176,1,29,120,66,11,227,59,50,206,204,9,133,184,202,41,52,64,46,172"
dtnsim.node[12].app.size = "50,500,100,500,100,50,100,200,200,100,100,50,500,50,500,200,200,200,50,100,200,100,500,50,50,200,500,100,500,50,50,100,500,50,500,200,500,500,100,50,500,50,500,50,100,200,50,500,100,500,100,200,50,50,100,200,100,200,50,200,500,100,500,200,100,50,100,50,500,500,100,500,200,200,500,50,50,50,200,50,500,500,500,500,50,500,50,100,100,500,100,500,100,200,50,500,50,500,50,100"
# Node 13 random traffic
dtnsim.node[13].app.enable = true
dtnsim.node[13].app.bundlesNumber = "39,32,6,46,39,4,7,37,43,11,38,20,23,1,41,34,33,34,32,41,44,7,43,33,45,16,34,27,23,24,28,4,35,17,13,29,29,25,1,44,2,45,19,49,18,36,20,41,43,7,17,28,32,25,36,5,36,19,31,6,28,26,40,42,30,31,9,29,23,14,48,34,1,26,43,47,9,15,31,16,42,40,39,13,41,13,29,37,8,4,3,1,4,49,42,11,40,35,33,46"
dtnsim.node[13].app.start = "19,29,87,74,33,29,66,72,9,5,6,85,69,57,20,32,16,35,1,23,5,95,95,94,12,49,67,51,90,91,11,48,2,85,64,89,44,44,21,41,18,52,53,64,6,2,48,67,30,58,61,80,94,72,72,82,93,48,94,92,32,8,23,45,63,3,73,61,82,86,54,4,44,21,69,85,39,14,63,24,68,16,20,44,35,55,19,82,16,30,5,88,97,35,90,82,48,64,79,1"
dtnsim.node[13].app.destinationEid = "100,8,184,201,72,128,20,143,145,203,202,116,105,93,47,54,37,181,43,26,74,36,86,25,238,14,25,23,37,30,35,119,64,172,219,226,80,110,31,8,20,1,139,128,58,182,180,231,220,185,136,56,15,92,127,158,174,74,68,117,125,72,129,143,14,232,53,85,102,28,34,2,78,4,148,33,28,182,104,179,96,145,163,40,74,36,43,41,156,67,71,87,95,171,209,57,144,14,222,43"
dtnsim.node[13].app.size = "200,50,100,200,500,100,500,50,200,50,500,500,500,500,200,100,100,500,100,500,500,50,200,200,500,100,200,200,500,500,200,50,500,500,200,50,200,50,50,500,500,50,500,100,100,200,200,100,50,100,50,100,50,50,100,200,200,200,500,500,200,100,200,100,50,50,500,50,500,200,500,200,50,100,50,500,500,50,200,200,200,50,500,50,50,100,50,500,200,100,200,200,100,500,500,50,200,50,200,200"
# Node 14 random traffic
dtnsim.node[14].app.enable = true
dtnsim.node[14].app.bundlesNumber = "26,14,3,10,38,23,46,19,1,4,3,22,27,5,36,27,22,40,35,33,15,15,17,40,2,32,22,38,47,7,18,18,41,32,12,50,41,1,36,19,16,27,40,43,32,32,16,44,17,14,48,37,20,13,29,9,43,1,9,47,48,33,46,18,4,7,20,29,32,4,46,13,36,45,29,43,45,14,45,9,30,5,44,31,16,40,7,48,5,19,7,47,27,2,8,41,11,46,25,4"
dtnsim.node[14].app.start = "42,29,22,34,84,97,26,58,41,22,99,44,11,90,47,11,56,9,4,55,93,29,55,8,15,44,7,22,23,56,53,24,41,70,27,52,75,50,54,60,47,83,91,25,17,83,91,26,59,62,11,26,73,77,86,55,98,91,76,74,10,25,61,99,8,8,53,90,94,82,2,11,80,13,78,6,88,23,1,60,49,100,28,21,82,29,82,8,63,11,96,20,24,44,58,70,40,48,45,70"
dtnsim.node[14].app.destinationEid = "158,39,51,21,227,19,48,46,205,11,100,25,33,223,228,140,213,236,236,169,72,55,147,66,185,25,175,233,17,152,61,9,8,64,72,123,118,65,180,21,16,2,193,95,119,23,204,140,83,232,72,141,147,40,11,83,53,222,44,21,101,41,42,92,145,84,196,95,197,36,107,224,34,39,160,207,122,136,74,96,202,102,160,103,108,142,104,54,169,8,166,19,160,208,63,175,17,187,65,105"
dtnsim.node[14].app.size = "100,100,100,50,500,100,500,500,500,200,100,500,200,100,500,100,500,100,50,100,200,100,100,100,100,100,100,200,100,200,50,50,100,500,100,100,50,100,500,100,500,500,200,100,500,50,50,50,500,50,500,50,50,500,500,200,100,500,200,200,500,50,200,50,50,50,500,200,500,200,100,200,200,500,500,100,200,200,200,50,500,50,50,200,100,50,500,100,50,500,200,200,200,50,200,50,50,200,50,50"
# Node 15 random traffic
dtnsim.node[15].app.enable = true
dtnsim.node[15].app.bundlesNumber = "2,5,3,17,1,41,36,21,41,6,20,10,11,9,25,35,38,11,12,14,37,16,13,46,14,26,3,17,41,50,16,44,15,6,2,27,34,11,19,16,32,12,3,25,9,24,5,44,14,8,41,46,12,13,34,12,49,1,11,32,40,3,27,38,36,33,22,31,50,15,26,20,22,36,10,4,50,9,43,49,5,11,13,7,13,27,16,48,6,11,29,38,17,42,27,45,16,14,5,21"
dtnsim.node[15].app.start = "83,15,70,19,94,4,30,63,85,55,19,5,82,58,13,12,97,70,50,14,96,48,17,14,62,29,85,4,91,44,22,71,57,81,69,40,80,4,66,61,65,49,68,17,57,8,44,16,49,85,32,51,67,45,5,100,52,68,38,80,77,42,82,54,58,70,34,51,35,38,30,5,4,27,39,33,58,9,88,9,58,41,7,95,41,73,6,78,71,68,32,57,63,64,63,21,35,16,41,58"
dtnsim.node[15].app.destinationEid = "66,158,164,120,192,74,22,224,181,187,238,67,205,113,121,186,31,141,14,240,139,65,218,47,239,192,135,238,240,3,92,115,222,175,84,190,193,218,103,167,143,29,129,88,158,185,125,168,41,138,177,147,13,53,184,6,110,191,54,137,121,6,133,199,216,183,80,196,32,30,33,99,65,8,124,199,177,6,179,170,205,182,8,99,14,14,192,111,140,27,95,102,170,170,139,88,163,155,142,20"
dtnsim.node[15].app.size = "100,500,200,100,500,500,50,500,100,100,100,500,200,50,50,100,200,200,50,100,200,50,500,50,100,100,500,200,50,50,100,100,200,100,100,100,100,100,200,500,100,100,100,50,500,200,200,200,500,100,100,500,100,100,100,50,200,100,500,200,500,200,100,200,50,200,500,500,500,200,50,50,500,50,50,100,500,50,200,500,50,200,500,50,50,200,100,50,50,50,50,200,500,200,200,50,200,500,100,200"
# Node 16 random traffic
dtnsim.node[16].app.enable = true
dtnsim.node[16].app.bundlesNumber = "36,41,47,34,29,40,14,24,11,50,18,7,14,15,19,18,8,23,28,11,31,41,16,17,10,16,26,19,12,2,16,15,13,18,6,22,41,49,49,40,38,39,31,24,4,3,5,32,5,21,40,29,19,29,24,12,1,41,10,10,10,10,43,1,21,13,11,9,15,15,11,47,35,45,21,19,20,18,29,11,44,35,16,26,5,5,36,40,8,28,46,42,15,17,24,46,40,38,16,42"
dtnsim.node[16].app.start = "29,58,96,68,30,71,6,83,75,60,88,16,67,64,45,6,99,87,87,50,88,49,11,28,15,78,18,52,52,81,56,74,52,46,62,93,23,48,93,9,50,37,86,80,49,94,59,49,23,36,85,56,33,88,32,84,86,29,1,86,33,86,94,3,53,40,72,32,19,54,24,16,14,15,87,82,14,19,37,99,7,89,4,58,63,17,42,10,89,1,20,70,62,82,80,93,94,98,5,15"
dtnsim.node[16].app.destinationEid = "232,215,26,85,180,198,231,144,206,201,46,233,123,82,8,194,158,226,112,144,152,85,60,221,79,219,235,235,59,50,41,213,115,86,109,49,60,29,145,164,36,145,69,84,112,97,170,74,141,176,121,32,19,56,216,50,129,8,205,231,174,127,188,1,229,224,28,64,39,137,190,65,45,87,58,28,67,86,164,172,167,36,223,4,199,13,177,47,70,227,153,117,152,86,112,30,167,221,2,98"
dtnsim.node[16].app.size = "200,50,50,50,200,500,100,50,200,100,500,500,500,100,50,500,500,50,500,100,50,500,200,200,500,100,500,50,100,100,50,50,500,50,100,200,50,200,500,50,200,200,100,50,200,50,50,100,500,100,50,200,100,200,50,100,500,500,50,100,100,50,500,100,500,500,500,50,200,100,500,100,100,50,500,100,100,200,500,500,100,200,100,200,100,50,500,500,50,50,500,500,50,200,200,200,50,500,200,100"
# Node 17 random traffic
dtnsim.node[17].app.enable = true
dtnsim.node[17].app.bundlesNumber = "5,27,16,39,23,6,5,16,44,8,45,21,20,27,30,26,26,27,17,34,38,36,4,32,5,41,17,19,8,2,7,33,17,26,3,18,27,2,6,7,19,14,45,22,29,50,40,26,24,39,5,7,23,26,6,36,27,43,29,10,35,38,4,8,28,10,8,8,2,4,35,24,1,14,12,4,50,12,21,34,6,29,7,33,30,17,49,40,40,43,33,14,29,2,50,2,10,23,25,35"
dtnsim.node[17].app.start = "92,68,75,97,36,11,12,64,75,42,43,50,55,83,6,32,80,42,70,47,64,12,29,45,10,99,85,47,20,76,42,35,20,19,69,17,57,71,62,94,87,71,59,35,8,55,46,41,21,67,15,82,62,44,41,58,8,19,24,97,63,6,99,47,82,68,2,20,25,20,10,34,53,59,17,29,78,89,47,65,48,36,31,38,88,11,75,22,28,60,19,98,95,62,57,49,36,28,46,97"
dtnsim.node[17].app.destinationEid = "180,220,110,115,197,45,61,105,156,129,72,163,222,40,157,235,6,113,180,3,178,124,26,23,168,18,81,69,194,45,47,147,177,158,112,20,207,232,157,103,219,218,52,94,98,201,189,28,135,203,135,222,178,45,165,34,48,114,112,102,64,157,85,84,84,165,88,166,218,153,200,109,155,176,189,217,44,155,15,167,105,221,173,135,214,42,98,221,139,56,29,166,155,19,196,74,235,41,232,48"
dtnsim.node[17].app.size = "50,100,100,200,500,50,100,100,100,200,200,500,500,500,500,200,100,500,200,200,200,100,200,50,50,50,500,200,100,200,200,50,200,200,200,100,200,200,50,500,500,200,500,500,50,200,50,200,200,500,500,100,100,100,50,200,500,50,100,50,50,500,50,200,100,100,100,200,50,500,100,500,50,50,50,50,200,500,100,50,200,100,100,50,50,100,500,200,200,100,100,100,500,200,100,50,200,100,500,500"
# Node 18 random traffic
dtnsim.node[18].app.enable = true
dtnsim.node[18].app.bundlesNumber = "36,30,21,23,22,35,30,20,26,15,16,8,42,50,13,31,42,13,29,40,1,48,44,49,37,31,44,27,36,6,16,28,15,15,15,49,28,24,13,41,22,41,7,45,19,18,23,2,6,19,25,41,27,41,43,10,32,3,14,38,12,41,25,40,8,12,18,34,10,30,36,30,5,11,40,33,21,45,21,19,43,3,38,18,5,37,11,13,21,7,49,42,19,29,43,21,24,14,39,43"
dtnsim.node[18].app.start = "93,20,89,95,69,11,21,19,22,69,9,61,37,88,50,64,2,47,9,89,82,54,95,57,89,23,96,17,55,72,91,49,1,29,9,59,91,19,39,5,99,49,7,57,95,39,91,8,89,83,38,71,36,13,97,50,89,50,2,58,50,39,38,69,6,68,28,24,64,9,32,87,66,6,19,69,83,76,48,53,10,33,62,19,44,19,37,73,76,67,84,100,47,79,15,99,89,40,78,3"
dtnsim.node[18].app.destinationEid = "223,81,4,184,2,204,223,161,80,37,206,152,195,238,53,224,138,216,3,153,29,50,70,32,43,96,154,63,6,69,225,131,182,201,73,33,50,222,19,109,214,163,192,39,214,66,24,231,35,179,141,192,102,125,88,173,46,113,3,139,215,4,84,84,240,2,66,119,33,31,167,160,228,147,107,9,27,166,107,94,180,196,51,88,190,17,70,129,83,155,183,147,176,67,28,83,83,227,123,43"
dtnsim.node[18].app.size = "200,100,100,50,100,200,50,50,50,200,50,100,200,50,100,500,500,100,100,200,50,500,100,500,50,200,100,200,200,500,50,500,50,50,500,100,200,50,500,500,200,100,50,100,500,100,50,200,50,50,100,200,100,50,100,500,100,50,100,200,200,50,100,50,50,50,100,500,50,100,100,500,500,500,100,50,500,500,500,200,200,200,50,50,200,100,50,200,500,50,100,500,200,500,100,100,200,100,50,100"
# Node 19 random traffic
dtnsim.node[19].app.enable = true
dtnsim.node[19].app.bundlesNumber = "38,12,32,10,32,16,15,28,9,2,20,27,45,38,40,21,13,36,22,31,41,3,9,35,33,7,43,21,39,29,24,1,39,6,32,46,23,22,38,24,32,15,7,24,39,32,42,48,22,5,17,41,8,29,30,26,44,4,41,19,10,35,8,40,18,18,47,28,21,17,43,29,16,5,41,39,46,13,26,6,15,25,45,40,48,23,17,45,9,5,20,25,33,19,45,16,45,10,23,4"
dtnsim.node[19].app.start = "50,82,91,20,41,83,84,95,20,35,91,43,76,12,56,33,28,28,48,45,15,93,84,3,73,72,36,79,18,93,66,71,14,90,15,75,64,41,32,39,20,84,26,44,51,5,96,47,17,89,87,55,12,72,84,11,25,54,2,79,1,15,98,18,85,98,86,52,82,71,63,44,58,64,14,67,80,12,14,53,65,41,16,19,68,83,21,10,46,96,57,44,17,68,39,7,57,46,49,77"
dtnsim.node[19].app.destinationEid = "43,5,191,32,67,205,222,130,20,101,44,36,182,143,105,1,236,62,130,71,34,84,208,17,47,86,218,177,108,217,109,51,43,48,4,89,156,200,225,226,129,231,213,188,27,3,206,66,209,36,229,45,83,149,99,240,176,13,240,71,40,192,199,213,21,230,157,187,69,205,132,15,217,195,222,107,195,67,58,97,48,54,165,134,55,73,84,116,28,70,58,142,73,96,109,189,90,149,105,39"
dtnsim.node[19].app.size = "500,200,500,500,100,200,50,50,200,100,100,100,100,100,500,500,500,500,50,200,200,500,100,50,50,200,50,200,500,50,200,200,200,50,200,100,100,500,200,100,50,200,50,500,100,100,200,200,200,200,200,200,200,100,500,200,50,500,50,500,100,500,100,100,50,200,100,50,50,50,100,500,200,200,50,100,200,200,500,100,200,100,50,500,200,100,100,200,500,100,200,100,50,200,500,500,50,200,500,100"
# Node 20 random traffic
dtnsim.node[20].app.enable = true
dtnsim.node[20].app.bundlesNumber = "40,46,48,34,29,12,24,5,43,34,39,33,6,9,38,36,39,25,41,22,15,40,43,48,49,29,38,36,21,47,23,18,21,27,42,10,42,11,13,10,8,35,18,6,16,44,25,15,39,44,14,37,35,37,18,21,27,10,46,30,44,22,3,50,44,21,4,28,45,41,37,37,21,1,32,21,39,31,33,48,37,6,48,8,17,12,11,27,8,42,17,8,33,29,45,30,11,49,7,4"
dtnsim.node[20].app.start = "73,83,62,41,47,13,55,10,72,11,46,24,49,12,34,66,87,45,10,70,30,63,25,29,70,77,95,11,89,98,50,35,64,82,93,81,100,76,87,18,66,22,81,65,29,72,54,93,53,5,37,92,100,54,32,19,96,26,57,92,46,67,23,30,12,38,65,94,16,66,7,62,82,41,68,61,13,77,92,58,66,66,31,43,48,41,85,97,69,31,11,3,14,17,7,61,31,21,83,93"