[General]
network = src.dtnsim										
repeat = 1
allow-object-stealing-on-deletion = true

# Simulation end time
sim-time-limit = 84600s

# Nodes quantity (identifiers (EiDs) matches their index, EiD=0 is ignored)			
dtnsim.nodesNumber = 360
dtnsim.node[*].icon = "satellite"

# Nodes's failure rates
dtnsim.node[*].fault.enable = true
dtnsim.node[*].fault.meanTTF = 190s
dtnsim.node[*].fault.meanTTR = 10s

# Mobility
dtnsim.node[*].hasMobility = true
dtnsim.node[*].norad.satIndex = parentIndex()
dtnsim.node[*].norad.satName = "sat"
**.updateInterval = 20s
**.numOfSats = 360
**.satPerPlane = 18
**.altitude = 540
**.planes = 20
**.phaseOffset = 11

dtnsim.node[*].dtn.routing = "antop"
dtnsim.node[*].dtn.printRoutingDebug = true

# --- Random Traffic Configuration ---
# Node 1 random traffic
dtnsim.node[1].app.enable = true
dtnsim.node[1].app.bundlesNumber = "43,4,21,37,3,22,48,46,43,29,4,9,10,42,5,47,38,16,16,24,1,13,47,42,38,7,44,3,3,1,41,5,42,27,15,18,47,27,15,39,17,19,34,50,48,43,19,44,6,19,9,15,26,23,37,46,26,36,1,7,5,27,8,32,17,22,38,11,34,8,36,25,36,10,11,3,24,42,37,2,31,32,34,31,4,6,7,40,40,14,7,5,11,41,30,25,14,43,41,17"
dtnsim.node[1].app.start = "63,95,87,47,96,36,53,40,60,31,32,82,83,15,52,30,69,92,75,14,33,58,54,43,88,51,54,98,74,46,11,8,74,34,54,7,97,16,99,76,1,46,20,56,53,71,100,41,49,64,82,74,44,50,75,28,77,50,1,75,4,99,70,88,54,95,80,7,21,65,89,97,1,46,83,89,65,45,47,12,11,88,44,34,50,21,30,10,74,76,86,99,76,51,11,30,49,91,74,26"
dtnsim.node[1].app.destinationEid = "234,23,272,241,154,311,127,337,145,152,236,93,86,337,200,342,164,15,52,7,324,256,301,76,144,332,179,61,202,194,211,168,48,124,268,7,339,274,209,192,89,81,30,224,342,265,357,12,84,191,319,174,124,66,226,62,176,216,64,63,138,45,312,277,302,169,264,110,147,344,173,12,66,274,91,257,276,214,118,265,218,33,137,309,127,165,228,161,50,49,28,227,23,204,187,347,20,246,296,296"
dtnsim.node[1].app.size = "100,500,500,100,50,50,100,200,200,50,50,50,500,500,200,500,50,50,50,100,200,500,200,100,50,500,200,100,100,100,500,50,500,100,500,50,100,100,500,500,100,50,100,50,50,500,500,100,50,500,100,50,200,100,50,200,500,100,50,100,100,200,200,100,100,50,200,100,100,200,100,200,100,200,100,100,500,500,100,100,200,200,500,50,200,100,200,500,50,500,50,200,500,500,500,500,200,100,500,200"
# Node 2 random traffic
dtnsim.node[2].app.enable = true
dtnsim.node[2].app.bundlesNumber = "32,14,3,4,34,35,14,26,5,32,24,11,43,21,45,19,6,31,11,4,10,18,25,16,21,16,29,12,30,30,40,17,23,13,43,3,18,8,14,17,21,7,17,36,23,37,32,12,5,3,35,43,34,26,8,23,27,4,13,4,5,44,38,6,17,33,20,11,46,35,49,31,17,1,43,1,40,31,31,30,21,16,37,2,26,35,48,45,26,35,35,38,29,39,44,6,23,5,20,43"
dtnsim.node[2].app.start = "72,15,75,72,42,85,2,16,95,37,19,10,84,59,51,2,16,53,34,47,19,75,34,15,27,3,15,23,12,42,19,82,6,86,81,3,87,10,34,26,13,55,59,59,18,14,81,75,81,82,27,6,96,38,50,13,57,98,35,8,84,75,72,56,56,24,32,89,12,99,55,30,59,61,92,84,57,39,36,44,66,20,72,99,92,60,64,41,26,27,98,15,13,40,67,87,1,53,89,53"
dtnsim.node[2].app.destinationEid = "217,328,253,223,90,25,175,318,160,90,250,255,15,314,200,280,239,148,24,55,178,40,213,211,221,339,276,61,330,268,37,194,214,148,119,34,164,91,201,70,94,229,61,236,75,10,43,34,147,93,259,30,193,10,107,9,324,302,11,78,172,94,352,67,106,203,360,78,130,128,96,110,178,128,233,38,33,145,269,37,89,289,104,54,5,11,47,253,49,82,173,74,275,314,260,149,156,266,19,241"
dtnsim.node[2].app.size = "50,50,100,200,50,500,50,200,50,200,200,50,50,200,200,500,500,200,100,200,500,50,200,50,50,50,50,100,500,200,50,50,200,100,100,200,500,500,100,100,200,200,50,50,200,200,50,100,500,50,500,50,500,500,100,50,50,500,50,100,500,50,50,200,50,500,200,50,100,500,500,500,100,100,500,500,500,50,200,50,100,500,500,100,200,50,100,500,200,50,50,500,200,200,50,500,500,200,200,100"
# Node 3 random traffic
dtnsim.node[3].app.enable = true
dtnsim.node[3].app.bundlesNumber = "41,31,2,50,41,29,22,13,22,6,42,24,19,5,16,33,5,12,10,16,16,45,2,47,2,46,50,7,48,24,13,11,38,14,20,42,3,21,31,8,9,18,13,45,21,5,46,20,48,17,44,10,1,17,13,35,35,14,3,12,30,40,5,39,24,48,26,44,10,48,18,27,20,49,11,2,19,37,21,45,41,28,20,2,39,41,15,17,26,18,48,16,27,25,2,13,48,26,2,48"
dtnsim.node[3].app.start = "46,92,81,8,70,91,68,55,19,79,58,20,8,99,82,70,44,4,50,43,21,52,35,93,95,80,63,67,44,39,32,35,56,59,20,49,99,13,37,17,7,6,71,97,11,63,83,96,6,34,49,10,18,12,6,70,41,69,21,26,41,31,64,94,49,74,66,22,29,13,7,74,97,69,22,74,11,30,28,32,23,40,15,43,93,82,55,87,24,8,6,7,61,93,72,77,25,42,38,24"
dtnsim.node[3].app.destinationEid = "198,296,270,227,32,8,158,288,230,87,303,269,241,243,47,246,336,1,220,127,21,53,261,285,355,288,26,76,106,87,211,79,201,311,55,301,264,107,248,156,46,61,158,91,6,126,290,66,125,360,287,331,322,283,102,347,137,22,44,265,108,73,167,179,206,158,129,307,310,288,35,213,174,2,292,120,275,120,130,160,133,307,110,268,216,45,64,64,144,145,157,308,67,134,77,236,130,173,224,54"
dtnsim.node[3].app.size = "200,100,500,200,200,50,50,500,500,100,50,50,50,100,200,50,50,100,500,100,100,50,50,500,100,200,50,50,500,200,50,100,50,100,100,500,500,100,50,500,50,50,500,100,50,100,50,50,100,200,50,100,100,50,500,100,200,100,50,500,50,50,200,500,200,200,50,50,200,500,200,200,500,500,100,500,200,200,100,200,100,100,50,100,200,200,500,50,200,200,200,200,50,200,100,200,50,50,50,500"
# Node 4 random traffic
dtnsim.node[4].app.enable = true
dtnsim.node[4].app.bundlesNumber = "16,26,10,24,6,10,22,40,37,50,1,26,34,50,15,34,27,47,47,41,4,7,7,13,1,48,22,2,28,38,34,34,37,23,13,41,30,7,11,33,20,6,23,8,4,46,25,7,38,22,1,35,30,29,3,14,17,1,46,35,35,41,37,37,33,7,11,31,12,49,49,48,16,27,30,36,37,29,25,17,10,22,22,13,47,43,38,38,9,8,47,37,6,29,9,26,46,24,42,35"
dtnsim.node[4].app.start = "4,27,2,91,63,97,19,2,50,86,80,34,90,76,65,95,44,31,5,2,86,47,50,1,80,87,31,39,63,21,44,39,32,18,79,81,44,7,33,11,42,59,100,29,40,3,89,63,56,44,24,21,47,81,36,62,25,30,80,54,24,18,16,59,63,85,100,23,28,91,45,50,48,33,89,79,11,17,32,27,45,96,87,93,13,20,23,70,62,25,34,21,36,10,67,64,61,38,41,45"
dtnsim.node[4].app.destinationEid = "313,335,19,58,78,131,7,317,203,236,340,169,202,120,148,45,199,310,329,210,145,246,219,122,131,8,40,148,167,234,304,273,117,200,181,257,165,100,166,81,37,6,113,138,134,346,150,80,181,351,346,74,80,108,241,237,45,157,293,3,50,49,135,223,134,57,46,105,131,207,26,204,23,95,66,240,85,252,347,343,119,301,277,189,5,273,150,153,34,309,356,272,287,95,138,215,62,12,163,309"
dtnsim.node[4].app.size = "50,50,200,50,500,100,500,500,100,100,500,500,500,500,100,100,50,500,50,200,500,500,50,200,500,100,200,100,100,50,100,100,50,500,500,50,500,500,500,200,500,200,100,100,500,200,500,100,500,50,500,100,500,100,500,50,200,200,200,50,200,200,200,500,200,100,50,200,200,50,100,500,100,500,50,100,50,200,200,500,200,50,50,500,200,500,200,50,100,200,100,50,500,200,50,200,50,50,200,50"
# Node 5 random traffic
dtnsim.node[5].app.enable = true
dtnsim.node[5].app.bundlesNumber = "10,14,11,25,21,19,16,19,12,10,10,50,39,14,6,27,30,7,49,33,45,5,50,12,38,50,28,38,38,40,19,18,38,35,16,41,32,22,47,36,1,2,3,37,28,38,17,33,12,34,23,10,14,21,20,22,8,39,8,5,30,4,12,11,5,36,29,18,32,24,21,44,18,37,24,2,26,20,18,3,31,44,20,23,1,6,46,36,30,48,1,33,21,25,16,2,32,47,27,35"
dtnsim.node[5].app.start = "68,32,63,49,81,67,95,54,89,70,23,88,85,6,79,33,89,30,21,54,91,82,30,97,50,55,33,23,13,42,30,93,21,86,50,67,49,97,23,52,90,74,98,82,68,46,85,33,23,47,3,23,30,84,11,8,43,11,93,57,40,87,98,46,85,8,50,22,89,60,37,2,33,89,7,21,62,91,21,2,53,68,70,17,91,30,16,61,56,9,14,96,76,5,12,43,62,1,31,70"
dtnsim.node[5].app.destinationEid = "315,41,340,222,314,92,294,279,255,163,187,120,290,155,4,228,125,234,207,294,260,338,346,109,229,62,36,8,109,111,342,22,191,307,238,339,2,311,152,11,151,240,215,226,38,194,245,315,29,127,211,59,336,241,254,2,292,181,214,205,241,235,226,286,312,211,57,13,91,262,177,75,51,26,359,331,314,265,226,76,77,306,152,288,130,269,76,349,240,128,222,253,313,138,81,321,96,147,327,286"
dtnsim.node[5].app.size = "50,50,200,100,100,500,100,200,100,50,500,200,50,200,100,200,500,500,100,100,50,50,50,50,100,200,500,50,100,50,200,50,100,500,100,500,500,50,500,500,500,200,500,200,50,500,50,500,200,50,100,200,50,100,100,200,100,500,100,50,500,200,500,500,500,100,100,500,50,200,200,500,200,100,500,500,200,100,50,50,50,500,50,200,100,500,200,50,100,200,50,50,500,200,500,50,50,200,50,500"
# Node 6 random traffic
dtnsim.node[6].app.enable = true
dtnsim.node[6].app.bundlesNumber = "20,42,16,2,49,21,48,5,1,42,20,40,33,50,44,9,35,36,31,6,33,37,22,17,43,23,26,18,50,42,15,42,20,9,2,38,5,20,48,20,25,25,32,21,48,9,22,23,42,7,35,27,46,34,28,28,44,32,24,44,31,10,35,14,25,4,22,17,7,46,32,48,47,8,29,22,1,16,20,15,50,3,15,20,5,16,48,33,6,9,16,21,5,45,46,43,21,33,38,32"
dtnsim.node[6].app.start = "77,35,44,62,16,66,2,33,61,88,66,47,40,88,99,27,60,87,48,32,71,78,50,94,60,100,68,59,57,6,7,87,59,62,57,11,63,53,35,94,91,76,79,73,55,31,53,86,18,87,79,83,92,60,12,89,79,80,27,100,57,18,71,16,23,29,13,59,88,44,6,36,58,55,7,83,13,51,68,31,61,20,79,12,1,65,82,16,98,54,95,40,34,5,57,70,97,58,30,47"
dtnsim.node[6].app.destinationEid = "145,148,166,83,196,188,94,302,174,328,279,229,32,169,301,334,7,202,194,94,202,48,122,317,260,90,317,126,47,7,213,279,356,196,167,24,135,16,205,200,177,216,165,261,68,38,212,83,29,16,24,54,280,130,323,118,90,300,274,159,315,56,14,105,239,93,310,70,219,277,278,209,201,274,193,356,340,183,241,92,85,54,349,56,237,59,55,135,114,254,238,94,284,199,77,304,91,16,198,303"
dtnsim.node[6].app.size = "50,100,200,500,50,50,50,200,50,100,200,500,50,200,100,50,200,500,50,500,100,200,100,50,500,50,50,200,200,100,200,100,500,100,50,200,100,50,100,50,500,100,100,100,100,50,100,500,200,500,100,200,200,50,100,100,100,50,200,200,50,200,500,50,100,500,500,500,500,500,50,100,100,50,100,100,100,100,50,50,50,50,200,200,100,500,200,500,500,100,50,500,50,200,200,50,100,500,50,100"
# Node 7 random traffic
dtnsim.node[7].app.enable = true
dtnsim.node[7].app.bundlesNumber = "50,15,12,17,2,46,27,50,5,20,21,25,12,13,34,48,19,37,6,44,48,35,47,46,23,45,43,26,33,3,18,41,2,24,30,36,29,46,3,5,10,32,18,43,1,33,18,13,16,46,37,36,42,26,10,27,48,4,20,3,31,16,42,45,33,46,13,5,38,37,9,43,40,24,19,24,17,29,5,32,50,4,29,15,10,34,38,11,29,43,17,43,6,43,12,35,5,19,29,6"
dtnsim.node[7].app.start = "45,98,78,19,77,28,58,1,50,82,42,55,59,47,26,60,35,30,89,44,79,83,100,46,57,21,15,26,63,76,93,31,20,48,31,39,40,16,8,14,99,59,88,55,32,63,13,74,71,81,41,36,58,26,96,99,18,67,16,8,6,85,72,16,95,9,35,29,84,46,42,2,56,2,76,76,66,19,70,38,62,11,21,36,34,26,77,89,16,19,15,47,23,69,25,25,37,94,80,84"
dtnsim.node[7].app.destinationEid = "97,357,208,324,163,164,171,54,138,246,24,329,115,208,115,357,163,56,184,314,355,27,360,234,111,130,196,103,31,134,354,247,106,191,281,19,138,197,11,19,341,350,248,308,282,279,243,172,6,292,101,185,115,26,128,33,351,179,126,341,210,30,306,123,255,230,41,65,243,317,98,307,106,280,67,73,54,118,71,13,354,292,185,104,165,306,245,289,13,36,21,178,299,248,328,264,160,48,9,54"
dtnsim.node[7].app.size = "100,500,500,200,200,200,200,500,100,50,200,500,100,200,50,500,500,200,500,50,50,100,500,100,100,200,200,500,200,500,100,100,50,100,500,500,50,50,200,100,100,200,500,50,500,100,500,500,500,200,50,50,100,500,100,200,100,50,50,50,500,500,100,100,50,200,100,50,50,500,100,50,200,500,200,500,500,100,500,500,50,200,200,50,500,100,200,200,50,200,50,500,200,200,200,200,200,500,500,100"
# Node 8 random traffic
dtnsim.node[8].app.enable = true
dtnsim.node[8].app.bundlesNumber = "43,33,20,45,25,18,26,26,28,19,35,22,1,4,47,37,47,50,36,36,27,16,29,29,21,9,12,43,25,30,16,19,8,39,45,8,36,35,37,7,20,17,33,9,31,3,15,49,4,33,49,40,14,38,21,22,36,41,44,23,40,4,11,23,6,29,36,49,7,26,42,31,29,15,14,22,32,24,48,33,9,8,25,4,23,24,32,37,43,21,42,10,36,49,2,50,1,9,33,10"
dtnsim.node[8].app.start = "64,88,26,72,95,3,100,76,19,52,34,73,50,82,98,26,63,72,71,22,67,58,23,72,51,14,77,28,77,60,50,61,92,100,39,45,75,46,34,98,10,60,76,74,83,2,74,53,74,59,4,67,61,18,36,32,93,51,68,55,50,82,13,31,27,70,1,39,33,26,69,56,8,1,8,70,87,7,68,65,79,95,43,40,20,37,50,98,26,73,16,44,78,21,64,90,58,38,88,16"
dtnsim.node[8].app.destinationEid = "285,158,231,224,297,247,297,11,273,241,212,98,142,233,98,178,233,178,246,193,85,328,56,124,69,68,274,214,353,76,310,134,315,24,304,61,344,33,146,164,44,88,34,7,198,360,59,187,241,204,357,160,17,151,3,110,226,327,42,342,296,67,71,156,348,338,228,157,153,96,91,66,120,120,72,107,225,39,318,71,33,6,223,122,27,272,147,304,115,240,95,84,297,84,58,40,328,279,276,340"
dtnsim.node[8].app.size = "500,200,100,500,50,100,200,200,500,50,200,50,100,50,500,500,500,50,500,200,200,100,500,500,50,100,50,50,200,100,50,200,500,100,100,100,200,50,500,50,100,50,500,100,500,100,50,500,50,100,500,500,500,100,100,500,200,500,500,500,100,500,500,50,100,100,500,50,50,50,500,50,500,100,100,500,500,500,50,200,100,50,200,100,100,500,200,200,50,500,500,200,200,500,100,100,100,200,50,200"
# Node 9 random traffic
dtnsim.node[9].app.enable = true
dtnsim.node[9].app.bundlesNumber = "1,7,33,31,25,1,3,36,37,31,46,45,40,26,40,33,40,50,45,19,14,45,41,4,38,28,29,5,27,9,39,34,50,21,39,43,35,38,41,12,19,44,18,23,11,9,40,50,42,34,5,50,2,17,33,4,42,11,7,50,17,25,39,30,46,46,22,21,40,26,28,38,1,22,33,44,49,27,45,42,7,14,19,37,3,49,46,17,21,40,34,11,48,26,4,29,34,23,25,40"
dtnsim.node[9].app.start = "29,91,13,11,99,84,6,46,15,67,46,4,28,37,77,88,92,5,75,49,13,93,35,26,46,42,31,3,42,35,5,60,22,85,70,93,87,18,26,30,79,87,52,88,77,11,37,93,54,68,53,59,65,36,93,13,77,59,79,64,70,8,42,97,38,63,6,97,55,93,24,77,40,47,7,31,77,45,6,77,79,64,2,20,43,66,38,1,78,36,53,71,79,88,26,73,22,27,40,74"
dtnsim.node[9].app.destinationEid = "95,122,233,144,69,199,159,327,132,340,34,342,309,343,27,294,281,324,235,253,227,356,345,242,191,174,215,74,72,354,111,212,186,210,100,42,216,107,302,96,101,203,121,199,132,318,16,16,69,291,137,324,253,66,44,348,324,184,120,2,63,34,237,251,141,140,239,305,80,44,221,244,284,79,241,127,145,67,88,353,225,249,45,140,43,43,160,79,329,172,79,140,160,125,82,200,213,114,107,110"
dtnsim.node[9].app.size = "500,50,500,50,200,200,50,100,50,200,50,500,50,500,50,100,500,500,50,100,200,500,100,100,500,500,200,500,500,50,500,100,500,100,50,200,200,200,50,50,100,50,50,500,200,500,50,200,500,100,500,50,50,50,500,50,50,50,500,200,100,500,50,500,50,50,50,50,100,500,50,500,50,200,500,50,500,100,50,100,50,50,500,100,100,50,200,200,100,100,500,50,100,200,100,500,100,50,100,50"
# Node 10 random traffic
dtnsim.node[10].app.enable = true
dtnsim.node[10].app.bundlesNumber = "19,10,48,29,12,35,11,19,50,43,27,35,47,33,47,47,8,25,47,47,20,26,8,50,14,7,3,26,43,31,35,50,32,43,50,48,5,24,27,18,31,20,14,39,25,14,13,34,31,16,36,34,31,25,11,1,16,2,9,30,49,7,49,32,7,16,43,22,38,22,26,34,43,41,41,10,25,22,14,43,5,30,44,44,41,39,14,30,17,42,40,26,22,41,49,34,30,39,30,10"
dtnsim.node[10].app.start = "5,20,22,67,26,39,62,63,39,47,36,72,15,89,82,92,13,51,97,46,5,99,4,9,25,22,98,94,69,2,79,83,83,40,8,89,35,34,66,5,68,50,70,65,63,96,81,23,43,74,37,62,16,82,49,43,89,58,80,78,85,49,45,31,15,73,22,6,48,19,75,71,59,28,84,61,34,6,39,96,87,68,15,99,51,59,23,68,54,12,71,53,96,78,32,79,65,40,96,100"
dtnsim.node[10].app.destinationEid = "275,29,278,59,92,270,133,99,333,173,143,257,44,301,67,256,158,72,195,86,257,202,192,277,114,212,326,219,315,250,207,190,293,12,197,195,191,264,322,316,359,359,77,318,23,67,121,11,165,323,215,8,329,249,335,17,227,178,20,125,268,81,165,38,64,320,242,250,181,292,73,252,76,65,208,289,311,244,138,111,184,68,219,148,6,161,199,315,134,356,43,261,39,114,9,81,203,287,63,218"
dtnsim.node[10].app.size = "500,100,50,100,500,50,200,200,100,50,500,500,200,500,500,500,50,500,500,50,100,50,200,100,50,50,200,200,50,200,50,50,50,500,100,200,200,50,500,200,200,50,500,200,500,100,200,500,50,200,500,500,500,100,500,200,200,500,50,50,50,200,50,50,500,200,100,100,100,100,50,500,200,100,200,200,50,100,200,100,50,50,500,200,100,500,500,50,500,200,100,50,100,200,200,500,100,500,100,200"
# Node 11 random traffic
dtnsim.node[11].app.enable = true
dtnsim.node[11].app.bundlesNumber = "10,50,16,29,39,12,38,35,39,37,21,46,27,19,12,13,19,46,5,35,48,3,15,47,16,34,20,37,17,31,36,33,12,12,38,14,17,10,50,33,14,20,42,50,28,30,19,42,49,33,11,15,23,27,48,25,39,30,8,45,38,18,37,29,25,30,50,46,34,23,36,31,22,6,37,9,6,35,25,6,5,32,21,33,46,46,44,24,16,9,40,40,24,22,37,26,24,26,31,43"
dtnsim.node[11].app.start = "9,57,65,6,22,64,13,31,29,94,41,70,89,79,6,13,42,94,69,25,15,75,50,82,65,10,28,4,83,11,24,20,93,1,58,14,9,18,93,53,28,78,92,13,40,46,98,45,68,84,68,59,35,19,45,7,55,88,46,33,9,55,66,91,57,62,28,73,12,78,89,64,13,93,77,40,33,61,77,2,33,37,61,27,98,5,84,80,88,5,98,50,18,14,44,86,19,18,88,100"
dtnsim.node[11].app.destinationEid = "212,320,1,26,200,76,198,342,157,135,28,64,215,26,201,82,266,59,115,134,208,79,117,57,296,67,318,130,313,218,169,158,195,138,30,255,24,112,216,308,37,65,47,60,113,316,28,258,108,116,266,26,286,72,185,237,19,304,312,134,113,15,286,250,300,189,254,273,174,302,120,184,62,194,226,62,320,101,71,341,78,37,255,339,194,146,53,168,68,232,43,88,265,251,44,69,79,103,129,89"
dtnsim.node[11].app.size = "50,500,200,200,500,50,200,200,100,200,500,100,500,100,200,100,200,50,200,500,50,100,500,100,200,100,200,200,200,200,100,500,100,50,200,50,200,200,50,100,200,100,500,200,500,100,200,50,500,50,100,50,50,500,500,100,500,50,100,100,100,100,200,100,200,200,50,500,200,100,100,200,100,200,100,100,500,50,200,50,500,500,200,500,500,50,200,200,50,200,50,100,100,200,100,100,500,50,200,100"
# Node 12 random traffic
dtnsim.node[12].app.enable = true
dtnsim.node[12].app.bundlesNumber = "36,23,23,3,16,39,17,3,29,30,21,33,8,19,50,12,15,32,27,7,28,41,5,35,7,10,46,38,16,15,20,5,21,18,28,16,6,24,48,33,11,13,32,29,48,14,49,15,31,16,11,44,16,39,22,50,12,39,5,37,24,35,30,20,21,50,7,45,41,41,50,38,45,10,7,37,14,40,23,7,17,25,20,26,30,50,15,12,7,16,38,18,1,19,18,46,38,33,21,47"
dtnsim.node[12].app.start = "89,57,29,92,74,100,99,22,27,99,75,23,12,85,55,86,95,72,62,75,68,11,100,10,90,36,96,32,54,79,44,39,67,76,19,53,4,44,30,49,79,78,98,50,50,36,25,13,64,90,73,59,88,90,80,35,73,33,51,34,95,73,18,1,38,59,70,17,75,82,26,51,78,71,17,32,29,81,82,64,74,87,3,54,41,42,45,79,80,13,63,65,50,52,66,57,1,10,47,79"
dtnsim.node[12].app.destinationEid = "347,142,225,318,45,100,31,80,166,99,300,227,261,197,113,109,124,37,27,73,8,243,225,146,123,337,266,242,283,11,74,200,270,30,77,173,106,305,211,260,180,357,240,51,275,18,97,191,121,76,154,336,297,347,116,320,96,136,32,300,246,86,320,103,304,115,272,350,279,128,214,180,179,284,30,184,50,87,81,157,292,345,254,324,13,242,156,310,64,219,64,199,99,250,88,313,226,276,166,278"
dtnsim.node[12].app.size = "500,500,500,500,200,100,50,200,500,50,100,100,500,100,50,200,200,50,200,500,200,100,200,200,200,200,50,200,500,500,100,100,50,500,200,50,500,50,500,50,500,50,50,200,50,200,200,200,500,200,500,100,50,200,500,100,200,100,100,100,500,500,500,50,100,100,200,100,100,100,50,500,200,500,500,200,50,200,500,100,50,500,200,100,500,50,200,100,200,50,200,200,200,500,50,50,100,500,200,500"
# Node 13 random traffic
dtnsim.node[13].app.enable = true
dtnsim.node[13].app.bundlesNumber = "20,7,29,18,27,21,45,28,16,33,2,47,47,22,39,8,50,48,23,46,2,5,50,47,17,39,45,21,29,26,36,48,28,22,29,18,50,5,15,2,48,19,21,47,37,49,11,15,12,17,41,31,10,31,18,10,4,25,10,43,44,28,15,15,41,16,2,34,19,41,25,23,15,27,49,21,28,29,35,5,42,22,32,47,45,8,35,37,24,15,1,9,29,28,39,28,17,23,29,26"
dtnsim.node[13].app.start = "53,41,23,41,35,73,56,29,9,60,20,87,46,29,43,1,18,71,24,97,73,50,100,24,77,79,35,55,97,16,47,19,30,20,64,20,56,76,63,36,74,52,64,79,31,3,69,65,78,50,27,93,55,55,15,68,64,70,64,31,29,98,49,3,33,17,40,59,66,44,42,4,53,15,76,42,50,62,5,89,96,5,22,23,10,3,54,18,68,41,54,46,58,65,13,83,39,94,96,80"
dtnsim.node[13].app.destinationEid = "62,100,75,346,274,70,1,273,27,149,251,72,53,121,339,54,285,105,44,185,82,156,60,9,167,311,226,305,325,226,77,64,280,233,26,341,97,260,180,90,50,223,272,15,50,83,304,254,182,141,169,300,127,105,336,32,324,238,271,339,188,139,25,61,151,196,346,230,44,273,66,127,143,321,311,183,34,66,281,355,200,167,271,240,95,300,331,156,198,226,335,57,45,124,45,184,53,229,345,66"
dtnsim.node[13].app.size = "500,500,500,200,100,100,100,200,50,50,200,100,500,50,500,200,200,200,50,500,200,500,100,100,200,50,200,200,200,200,200,500,500,200,200,500,500,500,100,50,500,200,200,200,100,50,100,200,100,100,200,50,500,200,200,200,50,500,100,100,50,50,100,100,200,50,100,100,200,200,500,100,500,50,50,100,100,200,500,50,100,100,100,100,200,200,50,500,50,100,50,100,200,200,500,50,500,100,100,50"
# Node 14 random traffic
dtnsim.node[14].app.enable = true
dtnsim.node[14].app.bundlesNumber = "11,26,6,15,43,30,9,16,37,8,20,38,20,39,36,31,24,30,9,22,49,18,42,47,25,23,49,27,19,5,39,36,17,36,36,29,9,24,5,34,19,36,29,30,30,43,16,46,22,32,20,1,28,12,22,37,31,10,6,49,2,24,13,43,29,48,42,4,24,14,25,46,45,26,38,15,4,15,12,5,34,40,17,23,7,32,37,30,48,50,41,26,6,20,29,1,24,24,10,18"
dtnsim.node[14].app.start = "6,25,65,1,20,69,78,62,15,58,44,45,60,30,94,47,36,13,80,72,34,3,62,35,66,11,22,28,32,66,4,33,74,11,64,62,16,33,89,26,4,28,60,77,73,72,59,14,34,86,34,72,5,7,85,6,62,35,11,85,26,93,67,90,93,25,66,28,97,51,28,30,20,1,89,21,7,10,64,96,87,84,16,87,24,31,30,87,52,5,42,84,20,84,3,93,20,13,56,94"
dtnsim.node[14].app.destinationEid = "299,230,360,70,318,255,324,204,2,36,181,28,147,183,35,58,343,19,10,323,68,233,156,123,173,64,149,128,297,333,39,16,56,252,310,118,45,263,154,249,346,59,271,183,42,172,131,101,155,322,100,85,193,339,180,153,281,90,341,352,348,23,332,255,225,345,219,335,251,41,186,190,74,319,17,120,279,198,341,155,81,342,77,301,239,105,301,257,330,22,196,352,108,163,312,1,241,250,62,213"
dtnsim.node[14].app.size = "100,100,200,200,200,50,50,200,200,500,500,200,200,100,500,500,500,500,500,500,50,50,500,500,100,100,100,500,50,50,500,500,100,200,200,200,100,200,500,50,200,100,100,50,100,100,200,500,50,500,100,200,500,50,500,500,100,200,500,100,200,500,200,200,100,500,50,500,100,50,200,500,50,500,200,100,500,100,100,200,50,50,50,200,200,500,500,500,200,50,500,500,100,200,100,500,200,100,500,50"
# Node 15 random traffic
dtnsim.node[15].app.enable = true
dtnsim.node[15].app.bundlesNumber = "3,25,22,23,8,27,23,31,37,24,34,14,20,42,43,35,7,5,28,47,32,30,30,42,13,25,15,13,18,6,28,37,32,48,28,12,17,37,19,11,34,34,33,11,43,37,13,41,30,37,9,12,31,29,21,35,25,36,9,45,10,5,3,38,9,19,19,12,17,44,5,11,12,39,21,16,21,45,11,25,21,34,31,32,41,12,49,27,16,28,3,22,49,25,20,29,15,23,37,40"
dtnsim.node[15].app.start = "91,25,82,69,56,23,60,60,71,94,90,93,78,14,47,87,18,52,57,60,78,62,4,58,44,96,33,59,86,33,38,42,5,98,51,46,39,31,77,74,62,40,55,85,15,64,34,7,85,97,50,29,85,57,96,30,57,41,68,20,46,54,24,53,27,72,71,71,47,66,89,42,7,95,76,53,63,4,27,84,35,98,18,40,38,63,37,34,99,91,68,16,94,60,49,11,13,50,60,52"
dtnsim.node[15].app.destinationEid = "253,236,315,289,311,4,99,58,147,258,297,317,146,159,351,209,161,297,31,144,228,216,77,67,239,360,335,37,102,48,282,27,144,189,220,246,25,117,67,182,232,345,119,61,233,154,322,353,167,251,171,2,248,323,193,90,248,141,235,247,333,252,125,351,40,26,123,217,56,293,83,41,40,45,36,216,257,132,256,76,201,69,293,52,43,199,75,122,249,304,145,359,358,326,113,351,267,103,304,316"
dtnsim.node[15].app.size = "200,100,50,500,50,100,50,500,200,200,500,200,200,200,500,100,50,200,200,500,100,50,200,50,500,200,50,100,100,100,500,50,100,100,500,50,500,500,500,500,50,100,200,100,100,50,500,50,50,200,100,200,500,500,100,50,500,200,50,500,50,100,100,500,200,100,200,100,100,200,50,100,200,100,500,50,200,50,500,200,50,500,200,100,200,100,50,100,50,50,500,100,50,200,100,100,50,50,200,100"
# Node 16 random traffic
dtnsim.node[16].app.enable = true
dtnsim.node[16].app.bundlesNumber = "3,16,25,49,8,40,9,22,16,38,35,4,27,35,11,5,41,1,30,50,20,29,39,22,19,47,32,9,11,46,3,16,28,34,1,3,38,18,45,45,24,17,22,34,19,24,27,41,15,20,24,24,22,24,28,24,7,29,24,34,38,47,6,50,34,32,1,33,20,33,19,20,37,6,17,33,12,26,25,28,7,6,18,3,4,42,6,43,41,16,48,25,34,36,28,28,29,42,43,19"
dtnsim.node[16].app.start = "85,94,74,75,2,29,84,93,32,83,16,90,94,27,95,42,86,5,48,67,10,2,13,39,90,17,53,41,56,19,57,47,37,51,54,25,85,28,58,7,85,32,3,78,84,36,89,18,15,8,81,18,16,99,8,52,48,16,61,6,15,59,94,45,56,83,71,37,24,6,77,54,60,38,76,67,97,49,16,78,3,32,35,17,39,48,56,9,10,31,95,64,21,9,14,22,92,66,8,34"
dtnsim.node[16].app.destinationEid = "222,129,66,160,155,293,288,106,39,309,119,162,160,334,307,275,168,66,20,269,129,42,23,100,293,242,42,141,290,192,150,356,83,296,96,162,270,357,187,182,53,154,262,284,128,291,343,93,68,183,172,175,81,308,151,180,4,134,333,147,275,2,51,131,66,325,70,174,71,191,101,96,346,235,320,127,69,191,15,230,268,263,163,203,138,220,178,236,109,44,29,337,64,249,241,201,18,272,226,76"
dtnsim.node[16].app.size = "100,50,100,200,50,100,50,200,200,200,500,200,50,500,200,200,200,100,100,50,500,200,100,500,50,200,500,500,100,50,100,100,100,50,500,200,50,500,50,50,50,100,200,50,100,50,50,200,200,200,50,100,200,200,50,100,100,500,50,200,100,100,100,50,100,500,500,500,100,500,100,100,100,200,200,200,100,200,100,50,50,100,500,200,100,50,200,500,100,50,200,200,50,50,500,200,50,50,200,500"
# Node 17 random traffic
dtnsim.node[17].app.enable = true
dtnsim.node[17].app.bundlesNumber = "27,45,26,17,29,4,19,50,29,45,38,35,6,21,29,13,12,39,13,30,11,3,37,8,37,21,27,28,16,20,35,14,30,24,35,40,19,18,2,25,23,9,44,14,49,25,15,2,23,18,33,48,19,1,20,35,50,29,35,14,26,38,19,31,5,13,2,28,16,12,23,10,46,36,37,21,15,27,32,43,19,19,50,5,36,16,15,10,24,8,11,18,10,13,22,44,43,34,25,13"
dtnsim.node[17].app.start = "83,58,56,22,32,65,2,41,66,88,93,72,18,11,6,23,45,80,92,18,44,37,56,11,98,37,25,67,73,69,17,94,11,90,46,63,82,30,2,87,27,41,85,16,24,92,94,29,50,46,45,60,14,93,3,13,6,51,82,87,83,24,71,53,29,84,73,93,37,3,60,86,4,2,69,23,39,73,16,82,43,43,23,25,21,44,15,11,43,64,9,60,7,16,29,80,18,59,26,80"
dtnsim.node[17].app.destinationEid = "183,155,264,267,171,89,341,127,331,13,269,172,61,307,214,142,347,310,44,4,323,34,209,52,12,109,315,8,158,274,151,340,309,74,16,252,343,220,352,305,29,158,175,286,326,170,134,65,84,65,164,151,107,205,134,162,356,48,319,84,127,2,294,74,281,234,72,8,264,85,333,182,173,118,149,218,176,289,47,13,6,352,177,308,11,352,36,50,147,188,147,9,157,19,176,1,263,309,305,189"
dtnsim.node[17].app.size = "500,50,50,500,500,50,500,500,100,500,500,50,50,50,500,100,50,50,100,50,200,500,100,500,100,200,50,500,50,500,200,100,200,500,200,500,100,50,100,200,200,100,100,200,200,500,100,50,50,100,100,50,50,100,100,100,200,100,100,100,100,50,200,500,500,200,50,50,100,500,100,50,100,500,500,50,50,500,500,500,50,500,500,100,200,50,500,200,200,500,500,50,500,100,100,100,50,200,200,50"
# Node 18 random traffic
dtnsim.node[18].app.enable = true
dtnsim.node[18].app.bundlesNumber = "32,36,34,48,38,27,22,48,47,26,6,29,9,2,1,26,38,41,26,42,32,11,23,5,14,5,39,16,15,1,44,16,4,10,30,25,12,45,26,38,27,21,19,45,21,8,36,38,10,30,19,30,48,18,22,17,39,36,1,7,29,46,18,23,35,20,47,8,7,4,39,32,40,23,16,37,48,4,29,22,8,13,9,50,29,6,2,45,23,26,21,49,17,35,23,38,32,29,15,47"
dtnsim.node[18].app.start = "70,93,73,65,39,72,31,72,71,11,71,18,80,23,91,27,58,98,64,38,94,42,49,2,87,96,71,22,83,11,44,68,31,22,15,41,74,50,2,89,14,90,64,86,17,73,12,34,44,32,75,4,93,42,35,49,32,96,44,40,72,99,95,74,91,84,73,11,10,84,68,63,44,60,29,72,93,79,53,30,30,72,10,23,92,35,95,2,83,26,89,12,35,32,48,40,77,2,22,25"
dtnsim.node[18].app.destinationEid = "326,143,155,72,146,307,324,333,227,64,287,182,88,27,214,5,329,181,34,200,87,286,194,148,87,79,147,228,212,16,288,36,86,5,170,177,355,318,4,334,140,89,271,147,76,82,310,110,130,80,260,187,297,109,59,359,148,68,287,28,155,317,192,247,7,218,110,220,326,304,225,54,22,131,50,17,241,77,56,22,33,356,16,299,38,62,230,32,336,212,344,339,170,48,241,236,4,354,166,297"
dtnsim.node[18].app.size = "200,50,50,500,500,100,100,50,200,500,200,50,50,100,100,50,50,200,100,50,200,500,200,500,500,500,50,500,500,50,50,100,500,200,500,200,500,500,50,100,100,200,200,500,50,500,500,100,200,50,500,100,200,100,500,500,200,100,500,500,200,200,500,200,200,200,200,100,100,50,100,50,500,50,50,100,500,50,500,100,200,200,100,50,500,500,100,200,500,500,100,500,200,200,500,50,200,50,500,200"
# Node 19 random traffic
dtnsim.node[19].app.enable = true
dtnsim.node[19].app.bundlesNumber = "7,33,29,22,48,19,29,46,10,28,19,40,26,24,45,3,38,22,38,24,12,50,46,40,32,8,26,39,5,24,29,48,32,9,21,50,48,29,41,12,22,42,10,15,41,29,30,12,27,34,1,18,29,47,30,46,30,8,34,9,26,45,23,41,32,5,45,49,38,28,23,3,9,33,9,9,27,38,27,46,26,14,20,38,44,35,3,12,32,47,15,16,4,27,34,24,43,36,4,28"
dtnsim.node[19].app.start = "49,84,3,19,91,31,15,29,7,63,62,49,10,15,5,71,59,77,46,96,38,1,32,84,47,45,77,28,68,94,7,52,19,77,48,33,96,10,56,65,75,53,77,86,14,90,49,51,36,12,83,39,65,65,64,37,96,95,68,48,53,92,12,33,52,77,60,49,5,86,99,6,13,94,17,21,55,40,2,70,32,79,83,4,8,31,64,85,81,32,70,58,17,53,66,96,22,7,4,42"
dtnsim.node[19].app.destinationEid = "156,340,79,246,87,83,116,6,179,252,177,216,77,31,287,100,33,20,229,284,36,4,75,109,71,30,71,94,54,246,166,88,314,80,183,96,330,270,34,34,98,155,96,304,285,67,184,199,63,314,253,358,4,153,328,13,74,148,359,313,206,178,319,269,234,167,36,125,211,306,30,322,219,200,22,333,46,41,299,262,212,58,154,167,222,129,279,143,350,221,332,79,120,346,194,202,115,103,46,317"
dtnsim.node[19].app.size = "500,200,500,500,100,100,500,50,100,200,50,200,200,500,50,50,500,100,50,100,100,50,500,100,500,50,200,50,100,100,50,50,200,100,200,500,100,100,500,50,50,200,200,50,50,500,50,100,500,200,100,500,50,200,100,50,100,50,500,500,200,500,50,50,500,500,100,500,500,100,100,100,100,50,50,100,50,100,200,200,100,500,200,50,500,200,200,100,500,500,50,100,50,200,200,200,100,200,50,500"
# Node 20 random traffic
dtnsim.node[20].app.enable = true
dtnsim.node[20].app.bundlesNumber = "2,23,20,43,21,45,6,35,50,25,23,35,30,1,6,7,37,5,2,50,24,17,13,15,5,42,9,36,34,30,27,5,28,15,16,37,20,14,37,17,14,28,1,35,14,29,44,8,15,1,26,23,6,17,40,10,26,35,10,7,38,9,11,13,27,24,7,8,6,48,12,3,7,36,15,12,37,2,43,38,38,16,13,13,35,33,4,17,50,36,3,37,2,29,30,27,4,2,29,35"