[General]
network = src.dtnsim										
repeat = 1
allow-object-stealing-on-deletion = true

# Simulation end time
sim-time-limit = 84600s

# Nodes quantity (identifiers (EiDs) matches their index, EiD=0 is ignored)			
dtnsim.nodesNumber = 180
dtnsim.node[*].icon = "satellite"

# Nodes's failure rates
dtnsim.node[*].fault.enable = true
dtnsim.node[*].fault.meanTTF = 190s
dtnsim.node[*].fault.meanTTR = 10s

# Mobility
dtnsim.node[*].hasMobility = true
dtnsim.node[*].norad.satIndex = parentIndex()
dtnsim.node[*].norad.satName = "sat"
**.updateInterval = 20s
**.numOfSats = 180
**.satPerPlane = 15
**.altitude = 540
**.planes = 12
**.phaseOffset = 7

dtnsim.node[*].dtn.routing = "antop"
dtnsim.node[*].dtn.printRoutingDebug = true

# --- Random Traffic Configuration ---
# Node 1 random traffic
    dtnsim.node[1].app.enable = true
    dtnsim.node[1].app.bundlesNumber = "47,25,36,31,16,44,32,9,10,33,19,27,12,2,1,27,16,15,3,42,44,8,47,1,16,28,34,14,33,13,45,10,24,10,34,50,19,11,35,16,25,44,15,35,8,26,15,29,49,35,39,7,45,3,26,12,2,42,36,25,48,16,48,14,36,9,2,42,8,29,23,49,19,40,11,48,45,49,13,12,20,26,43,39,18,43,46,26,20,44,4,9,32,21,29,29,34,1,11,40"
    dtnsim.node[1].app.start = "92,96,56,37,59,88,41,77,14,19,17,98,63,17,13,86,13,84,53,68,56,76,11,86,89,41,19,64,16,1,66,25,8,100,60,9,89,26,33,30,9,91,57,11,27,92,21,21,83,16,53,56,89,6,7,14,46,94,99,1,55,78,96,16,25,30,66,31,79,87,98,74,46,90,14,51,78,65,66,92,54,64,96,62,15,39,18,26,54,95,9,49,8,82,7,25,45,34,2,35"
    dtnsim.node[1].app.destinationEid = "76,146,160,132,157,29,2,162,16,32,89,161,66,116,92,105,102,25,67,87,61,63,83,152,61,170,71,151,96,21,142,141,144,136,13,149,91,45,177,92,39,85,4,92,153,30,157,143,111,172,96,81,171,44,95,37,87,114,93,80,24,48,15,133,145,123,152,94,49,126,17,86,30,3,57,107,93,149,10,158,146,72,15,33,78,62,94,175,78,21,168,103,151,122,116,94,10,57,86,36"
    dtnsim.node[1].app.size = "500,200,500,50,100,500,50,100,50,200,500,100,500,50,200,50,100,100,500,500,50,500,500,50,100,100,50,200,200,200,100,50,100,50,50,200,50,500,500,50,500,100,50,500,100,50,500,200,100,200,50,500,50,100,100,200,200,100,100,50,500,100,100,50,200,200,100,200,200,50,50,100,100,500,500,100,200,100,100,50,500,500,500,100,100,500,50,500,100,100,50,500,200,100,100,100,500,200,500,500"
            # Node 2 random traffic
    dtnsim.node[2].app.enable = true
    dtnsim.node[2].app.bundlesNumber = "38,24,19,15,22,34,16,10,4,34,44,27,9,44,8,23,38,39,20,13,23,28,34,1,38,1,39,13,6,11,35,50,1,11,44,11,24,1,16,40,42,1,17,13,33,5,50,40,33,32,29,35,7,26,3,7,27,39,43,42,3,37,8,4,48,33,7,44,6,2,1,32,10,13,2,43,16,19,10,38,45,30,12,41,28,22,24,22,38,17,1,31,19,26,34,1,33,10,11,12"
    dtnsim.node[2].app.start = "63,14,92,28,93,46,6,9,6,99,14,22,56,77,45,16,94,57,69,53,93,14,7,6,83,94,21,88,7,28,9,99,99,91,16,32,77,64,6,30,89,2,74,97,98,46,7,64,62,42,75,66,35,77,87,47,82,84,60,19,89,42,51,72,3,24,5,42,96,26,24,20,87,54,87,48,57,59,49,6,14,79,35,92,20,60,69,29,38,87,96,77,23,75,3,7,33,69,41,73"
    dtnsim.node[2].app.destinationEid = "12,175,173,110,23,126,116,71,130,113,6,12,150,131,97,3,52,52,50,17,49,84,96,127,18,130,178,159,15,137,106,158,142,10,116,156,5,59,106,120,180,27,34,32,37,144,46,113,133,147,10,162,80,29,8,21,158,92,35,104,8,56,147,74,113,31,41,4,142,148,18,174,133,12,88,176,49,175,117,27,81,51,81,148,41,103,99,61,147,157,174,164,160,123,54,165,143,138,60,93"
    dtnsim.node[2].app.size = "500,100,200,50,500,200,100,200,50,50,50,100,50,100,100,50,100,50,200,100,200,100,100,100,50,100,100,50,50,50,100,50,50,500,500,50,50,50,100,50,500,200,500,200,500,50,100,200,500,200,100,100,50,50,100,500,500,100,200,100,200,50,100,100,50,200,200,200,500,50,50,50,200,500,100,200,500,200,200,200,50,200,50,500,200,50,50,200,50,500,200,50,50,200,50,200,100,50,200,200"
            # Node 3 random traffic
    dtnsim.node[3].app.enable = true
    dtnsim.node[3].app.bundlesNumber = "10,5,31,13,23,6,35,48,40,9,46,45,6,4,5,16,16,17,47,32,12,3,8,28,30,1,29,45,1,24,4,45,1,50,14,36,48,4,12,44,35,12,23,9,37,37,22,37,26,11,11,23,39,32,31,43,5,25,22,16,26,8,49,2,44,27,14,2,48,18,8,32,32,34,7,5,43,33,10,44,48,6,33,26,2,6,38,14,33,34,43,17,31,49,2,2,35,24,8,41"
    dtnsim.node[3].app.start = "47,10,3,69,16,90,41,95,91,22,6,28,22,97,68,41,74,8,80,83,17,10,74,3,52,34,54,43,83,18,43,55,98,35,65,84,51,88,39,69,61,90,81,71,34,71,46,63,9,83,5,48,48,48,52,2,94,38,57,62,61,20,14,69,74,81,88,8,63,66,82,66,25,13,67,57,52,58,80,66,24,4,40,37,56,90,71,18,41,95,16,70,92,43,27,59,35,6,97,60"
    dtnsim.node[3].app.destinationEid = "47,79,39,169,79,17,55,109,92,162,164,50,69,118,97,174,106,150,137,80,63,152,171,45,111,92,100,61,176,58,2,108,135,86,146,89,85,32,46,129,2,12,159,160,52,73,68,18,125,68,107,164,168,128,68,74,101,123,110,60,171,117,128,20,63,136,131,7,145,62,68,92,82,159,131,126,112,63,21,131,131,109,61,115,114,103,34,148,164,133,56,127,142,1,1,123,57,179,95,6"
    dtnsim.node[3].app.size = "500,500,50,500,500,50,100,500,50,200,100,50,200,50,50,500,500,100,50,100,50,200,100,100,100,50,100,200,500,100,50,100,200,100,100,200,200,200,50,100,50,200,100,200,50,500,50,100,200,500,200,200,200,500,50,100,200,50,100,200,100,50,100,500,200,100,100,200,100,100,50,500,200,200,200,200,100,50,100,50,200,100,500,500,500,500,500,50,50,50,500,200,200,100,100,100,50,500,100,50"
            # Node 4 random traffic
    dtnsim.node[4].app.enable = true
    dtnsim.node[4].app.bundlesNumber = "40,12,48,3,1,14,33,22,19,35,26,15,40,21,42,33,1,49,3,30,9,47,10,19,47,45,10,9,45,36,34,10,48,12,37,44,23,35,46,38,19,8,29,48,37,48,41,8,23,9,13,45,20,24,35,37,11,49,27,29,1,3,38,22,8,28,50,2,3,21,19,41,7,45,29,11,23,42,26,14,42,44,27,18,28,18,17,36,42,23,26,22,34,14,6,16,26,18,35,3"
    dtnsim.node[4].app.start = "76,100,12,18,62,88,83,78,35,37,53,83,58,32,55,3,86,48,83,39,79,20,24,12,18,70,95,97,22,37,65,50,87,77,34,82,13,35,35,35,18,33,70,19,39,77,70,10,83,83,62,10,68,66,87,81,63,34,31,83,26,77,53,57,35,66,75,96,7,95,15,7,67,70,69,81,8,74,93,11,33,96,11,31,6,93,10,98,93,96,12,11,45,25,77,73,49,12,15,49"
    dtnsim.node[4].app.destinationEid = "106,180,3,65,135,35,127,110,48,18,83,29,161,154,12,21,141,79,121,64,89,114,164,47,113,39,31,167,134,34,154,31,23,26,11,120,138,56,133,151,43,155,1,91,58,20,46,71,176,109,42,127,32,152,66,13,134,19,129,13,3,123,88,59,6,165,36,10,46,40,129,94,84,8,24,121,68,151,46,146,22,84,80,8,61,158,14,53,119,110,67,176,20,147,167,112,121,31,175,127"
    dtnsim.node[4].app.size = "50,500,50,100,100,500,100,100,100,100,100,500,50,500,500,100,200,100,50,500,100,200,200,500,100,200,50,200,100,100,200,50,500,100,50,200,100,50,100,500,200,100,200,500,50,50,100,50,200,200,50,500,200,200,50,200,200,50,200,200,200,100,200,100,50,100,200,50,50,500,100,100,500,200,500,100,100,500,50,200,200,50,200,500,100,50,50,100,200,500,50,50,50,500,100,50,100,500,200,100"
            # Node 5 random traffic
    dtnsim.node[5].app.enable = true
    dtnsim.node[5].app.bundlesNumber = "15,12,7,31,2,43,42,18,47,24,49,33,23,22,31,20,50,25,37,32,27,2,4,14,43,50,17,18,8,1,17,5,10,49,1,32,4,35,29,5,42,44,43,40,2,7,32,48,1,32,45,25,46,47,15,49,8,15,9,33,39,30,22,25,39,30,1,19,3,47,14,16,25,39,11,39,24,8,45,45,22,25,37,30,23,14,9,50,32,27,45,10,25,9,4,34,12,31,2,27"
    dtnsim.node[5].app.start = "52,86,57,25,63,99,46,54,28,58,9,35,80,75,27,34,41,42,46,21,35,74,87,78,86,13,40,15,31,52,60,13,69,42,38,43,55,97,96,33,83,74,6,43,13,30,6,30,88,48,28,93,83,61,52,31,15,35,74,39,1,1,60,68,48,43,24,40,89,72,90,68,5,4,63,41,18,53,22,75,84,78,78,89,32,59,47,59,3,15,28,44,68,66,63,12,10,57,80,14"
    dtnsim.node[5].app.destinationEid = "63,138,169,141,171,163,24,68,37,23,177,50,45,19,164,8,75,86,157,3,136,173,70,114,145,48,171,117,77,80,179,17,115,85,137,161,47,83,24,150,98,114,97,112,50,169,71,177,135,119,148,166,93,63,17,15,9,127,4,104,11,107,101,154,43,8,31,13,120,26,38,135,113,77,155,47,157,179,33,168,14,71,113,129,138,149,64,112,165,34,178,139,122,54,28,104,69,107,130,133"
    dtnsim.node[5].app.size = "500,200,200,200,100,50,100,200,200,500,200,500,200,50,100,200,100,200,100,500,200,50,50,50,50,100,500,200,100,100,200,50,200,50,200,100,50,500,200,500,500,100,50,100,50,200,500,500,500,50,100,500,50,50,200,200,50,50,50,100,100,500,500,200,200,200,500,500,200,100,50,100,200,500,100,100,200,50,50,100,50,50,100,50,100,500,100,100,200,500,500,200,500,100,500,200,100,200,200,100"
            # Node 6 random traffic
    dtnsim.node[6].app.enable = true
    dtnsim.node[6].app.bundlesNumber = "16,38,13,18,42,31,20,3,29,37,27,36,25,8,2,47,38,38,19,46,25,1,11,10,45,32,50,41,1,23,21,25,3,40,36,7,16,1,17,38,11,26,20,43,32,28,5,34,27,38,31,32,22,42,13,15,37,26,23,4,14,10,5,4,6,33,41,48,47,23,34,16,9,10,50,16,8,14,24,46,5,39,6,16,49,40,38,15,26,41,25,36,5,13,29,23,36,41,48,14"
    dtnsim.node[6].app.start = "25,94,20,63,85,44,48,62,70,30,75,11,27,79,39,52,34,100,2,66,24,33,75,20,3,6,50,49,78,50,32,48,37,99,37,47,79,97,16,90,31,62,98,61,39,17,96,69,39,55,90,79,15,27,1,12,81,49,31,28,96,95,19,1,84,97,89,77,52,91,80,81,94,14,81,78,100,94,63,5,55,81,99,45,95,37,56,55,99,83,87,73,12,76,83,14,2,7,65,28"
    dtnsim.node[6].app.destinationEid = "108,154,22,131,19,43,49,97,28,28,174,1,122,94,71,114,87,15,151,70,142,32,35,151,160,166,63,156,144,173,40,119,64,96,30,5,9,109,160,58,64,62,92,13,17,126,132,129,91,70,154,62,33,87,169,59,20,171,152,17,152,1,22,98,153,75,88,102,113,56,25,154,150,116,60,106,75,98,142,178,18,68,68,22,158,40,116,146,9,79,140,58,18,64,141,109,43,91,31,57"
    dtnsim.node[6].app.size = "200,500,500,200,50,100,200,50,500,100,50,50,500,500,100,50,100,500,100,100,50,200,50,500,100,50,50,50,200,50,500,500,50,500,100,500,500,100,100,100,100,500,500,100,100,50,100,500,100,200,100,200,500,50,50,100,100,500,500,500,500,500,50,50,100,50,500,200,50,500,50,200,500,50,100,500,500,100,200,500,50,500,500,500,100,500,200,500,500,50,200,100,100,100,100,100,50,50,500,500"
            # Node 7 random traffic
    dtnsim.node[7].app.enable = true
    dtnsim.node[7].app.bundlesNumber = "47,50,50,4,9,25,35,2,35,48,47,13,2,8,50,40,36,18,15,23,25,43,10,42,41,48,27,50,44,25,6,40,16,50,3,17,24,12,22,31,33,45,22,6,16,50,11,5,46,14,13,21,10,29,14,36,47,42,39,47,13,8,28,36,15,34,26,47,3,48,11,3,27,22,26,35,29,19,34,46,11,40,5,45,32,48,37,5,29,20,33,7,7,15,28,41,6,27,42,47"
    dtnsim.node[7].app.start = "22,80,41,74,55,18,75,53,42,58,15,26,8,37,83,39,12,9,11,93,75,6,16,82,86,93,18,54,33,55,25,91,62,85,65,30,87,38,58,34,56,21,72,92,3,87,80,15,34,22,2,40,36,30,13,89,89,73,7,30,42,84,5,64,35,75,83,23,5,8,32,4,9,12,19,11,58,88,21,15,62,73,83,37,26,46,55,72,88,17,88,61,23,70,14,67,32,10,40,32"
    dtnsim.node[7].app.destinationEid = "156,95,166,122,120,9,56,153,32,49,11,22,47,1,154,61,172,142,61,162,141,109,18,79,99,135,92,20,143,76,37,56,59,105,104,163,8,171,11,174,69,109,49,62,159,85,40,96,86,52,92,19,70,143,131,164,65,142,65,43,147,16,114,29,146,150,13,137,27,142,176,146,86,101,95,65,28,55,180,177,51,45,146,129,33,107,99,116,67,71,62,154,36,66,145,162,151,95,176,91"
    dtnsim.node[7].app.size = "500,500,200,500,200,500,100,50,200,50,100,50,100,50,50,200,50,100,50,500,500,50,100,500,50,200,50,200,50,100,500,100,500,500,500,100,50,200,100,200,200,200,100,50,100,100,100,100,500,50,200,100,500,500,500,50,500,50,100,200,50,50,50,100,200,200,50,500,50,500,50,50,500,500,50,50,50,50,500,50,100,100,500,200,100,500,50,500,200,100,100,100,500,200,200,50,500,100,200,500"
            # Node 8 random traffic
    dtnsim.node[8].app.enable = true
    dtnsim.node[8].app.bundlesNumber = "25,31,30,36,38,8,15,37,38,22,13,49,32,3,18,19,30,41,12,9,33,10,44,8,31,3,10,35,20,28,49,20,33,36,42,24,30,8,42,37,47,28,19,40,11,38,19,10,13,36,8,47,4,18,9,38,35,6,30,32,26,18,50,5,8,23,23,10,3,8,49,15,1,5,41,46,45,5,10,35,33,50,25,41,21,14,32,1,22,1,34,22,9,3,5,7,1,26,39,14"
    dtnsim.node[8].app.start = "85,54,83,22,49,99,20,4,2,57,28,56,94,54,46,27,69,36,100,93,43,24,3,100,36,80,7,28,2,52,92,50,89,2,42,72,99,38,99,85,33,26,41,14,39,23,54,17,12,45,77,17,5,8,11,28,59,2,96,32,45,61,52,61,89,71,90,52,91,71,15,27,30,67,92,44,42,57,23,98,78,81,88,97,2,87,30,8,20,7,25,39,60,27,4,88,18,38,82,65"
    dtnsim.node[8].app.destinationEid = "2,76,164,119,61,67,129,22,85,51,25,90,165,65,147,113,137,131,89,24,145,67,54,144,47,136,13,51,103,176,62,174,149,6,2,22,136,94,130,15,149,31,17,14,118,170,101,12,110,40,137,17,121,118,169,125,27,19,85,53,177,78,56,120,112,81,112,49,88,177,64,153,88,149,28,119,107,91,60,78,56,119,2,61,26,16,32,134,34,98,69,42,152,121,160,165,47,144,12,74"
    dtnsim.node[8].app.size = "50,500,100,50,50,200,100,500,200,50,500,50,200,100,200,100,50,100,200,200,500,200,200,500,100,50,100,100,100,200,200,500,500,50,500,100,500,200,100,200,500,500,100,500,100,500,100,500,100,50,100,50,50,500,100,100,500,50,100,200,50,100,50,500,500,100,50,500,200,50,50,100,200,200,100,100,50,100,50,100,500,200,500,50,100,50,500,50,500,500,50,50,200,500,200,200,200,50,200,500"
            # Node 9 random traffic
    dtnsim.node[9].app.enable = true
    dtnsim.node[9].app.bundlesNumber = "2,23,20,42,19,30,12,45,23,33,30,20,17,29,9,3,5,8,12,1,42,6,44,1,30,35,46,14,15,34,25,47,34,45,24,27,50,29,29,47,11,41,18,45,48,1,36,24,43,45,47,26,29,23,16,22,19,8,47,39,41,1,32,33,33,17,32,35,31,50,10,41,15,42,31,24,36,2,35,40,27,11,17,23,19,10,40,42,42,40,23,6,6,27,8,26,32,18,16,12"
    dtnsim.node[9].app.start = "91,51,43,17,87,46,57,85,36,37,16,53,76,82,49,94,98,29,71,3,66,88,12,4,44,43,79,74,68,60,2,98,25,72,15,17,34,80,54,84,71,30,48,35,82,68,96,85,94,13,21,89,50,10,24,42,42,41,68,60,47,95,10,66,63,34,24,20,50,5,65,40,54,19,74,21,13,91,22,98,54,24,16,44,25,97,55,39,23,88,62,93,48,43,46,83,22,90,3,68"
    dtnsim.node[9].app.destinationEid = "176,97,68,48,114,68,136,135,172,109,102,91,64,92,97,180,60,128,27,51,81,144,53,102,54,51,55,79,141,87,148,35,85,143,139,121,129,96,132,180,26,73,122,172,113,150,22,146,176,48,76,86,76,18,108,168,15,126,12,152,136,148,136,112,65,87,113,55,133,146,35,109,14,140,20,169,112,138,78,38,136,4,65,78,93,137,43,176,12,168,142,147,99,79,61,74,172,103,49,31"
    dtnsim.node[9].app.size = "50,500,500,200,500,50,50,100,500,50,500,200,100,500,100,200,200,200,500,50,100,50,200,50,50,500,100,500,50,200,500,50,500,100,100,50,200,200,200,50,100,50,200,200,200,50,200,50,500,100,200,200,200,200,500,200,500,50,500,200,500,500,500,200,500,50,200,500,200,500,200,50,500,50,50,500,200,100,500,200,200,50,200,500,100,100,50,500,500,100,200,200,200,50,50,200,200,100,200,500"
            # Node 10 random traffic
    dtnsim.node[10].app.enable = true
    dtnsim.node[10].app.bundlesNumber = "49,23,49,5,47,13,22,9,37,14,15,46,16,42,15,5,21,15,5,38,9,32,22,12,3,38,47,36,9,33,12,22,48,31,11,47,34,26,32,43,10,40,42,3,5,5,13,10,18,36,6,36,3,7,5,27,34,33,25,40,44,26,5,2,36,14,17,26,40,35,20,49,2,33,43,34,47,19,6,20,9,5,11,18,35,29,41,38,11,16,27,22,33,12,50,22,33,26,42,34"
    dtnsim.node[10].app.start = "82,99,78,6,78,79,46,59,10,9,52,62,80,28,56,87,36,80,28,25,91,100,43,65,64,23,23,62,12,75,33,14,99,22,57,41,60,87,65,22,77,26,7,86,61,55,4,24,47,73,33,37,63,58,60,10,80,38,76,9,31,57,84,79,42,5,67,6,31,90,75,71,69,62,41,78,85,76,34,72,81,68,71,64,58,48,7,26,69,38,13,39,95,99,50,58,94,45,24,47"
    dtnsim.node[10].app.destinationEid = "68,5,91,85,73,85,37,24,119,85,140,147,62,113,76,82,124,89,159,66,70,160,169,106,132,58,162,65,160,138,13,134,14,33,15,111,11,102,108,153,25,119,114,73,26,11,14,74,47,16,18,119,159,9,95,5,26,94,90,108,50,88,88,23,143,76,165,138,56,80,106,87,159,85,56,78,108,174,41,11,40,79,26,138,176,169,44,8,62,114,153,159,146,22,49,1,56,136,135,136"
    dtnsim.node[10].app.size = "200,500,200,500,200,500,200,100,200,500,500,200,50,200,500,50,50,200,100,500,50,100,100,50,200,200,50,100,100,100,50,100,200,50,50,100,50,100,100,500,500,100,50,100,500,100,50,500,50,50,100,50,50,500,50,100,200,500,50,200,500,100,100,100,500,50,500,500,50,100,50,100,500,100,100,50,200,50,50,200,500,200,500,50,50,100,200,50,200,50,50,100,200,200,100,500,50,50,50,100"
            # Node 11 random traffic
    dtnsim.node[11].app.enable = true
    dtnsim.node[11].app.bundlesNumber = "41,16,49,15,12,24,18,45,14,6,30,15,9,28,10,19,31,48,30,25,17,20,5,25,25,13,46,28,17,7,15,48,31,3,16,7,30,28,47,13,6,11,13,49,25,16,22,34,42,26,30,26,12,2,13,39,40,46,25,33,4,21,27,16,34,35,42,46,7,49,23,13,21,18,17,46,29,3,8,48,47,3,12,25,24,12,1,38,30,35,13,6,41,39,48,28,26,20,40,17"
    dtnsim.node[11].app.start = "85,55,90,22,80,11,55,45,8,3,92,81,89,72,28,48,44,20,32,65,13,26,46,78,54,90,46,69,31,72,54,90,22,4,61,3,69,22,9,58,71,75,78,100,82,72,75,72,9,93,37,8,8,61,37,82,92,2,9,77,5,25,48,55,27,6,76,3,70,17,32,44,57,76,8,31,97,99,59,34,1,43,54,100,76,35,86,31,83,93,36,20,65,80,33,56,49,3,41,55"
    dtnsim.node[11].app.destinationEid = "169,73,133,177,2,106,23,131,107,36,33,58,146,162,5,53,65,79,88,37,74,72,94,139,1,9,106,105,104,169,83,96,12,106,74,103,122,159,92,3,8,120,75,163,14,27,67,53,10,176,54,77,87,123,153,66,29,55,49,22,50,61,169,103,153,119,95,157,159,89,43,156,107,95,12,97,154,28,83,20,62,10,45,132,175,2,61,8,76,71,103,17,39,159,24,105,148,173,14,166"
    dtnsim.node[11].app.size = "50,100,200,50,500,100,200,200,50,200,200,50,50,50,50,200,50,500,50,200,100,50,50,50,200,50,50,100,100,200,500,200,200,200,500,500,100,100,50,500,50,200,500,50,500,500,500,100,100,200,50,100,100,50,50,50,500,200,200,200,100,50,50,500,500,500,100,200,200,50,50,50,200,200,500,100,50,50,100,100,500,50,200,100,100,500,50,100,50,50,50,200,500,50,100,500,200,500,100,500"
            # Node 12 random traffic
    dtnsim.node[12].app.enable = true
    dtnsim.node[12].app.bundlesNumber = "40,5,22,45,14,19,13,12,40,28,22,35,7,10,46,31,44,14,19,42,5,33,21,10,28,20,44,26,34,19,10,38,9,33,47,31,34,18,49,39,42,50,41,24,22,41,36,24,44,17,27,8,20,4,42,39,48,3,18,48,42,47,4,50,29,41,31,35,14,17,41,17,26,38,8,8,37,13,16,43,35,1,17,1,49,42,49,19,50,12,45,42,10,12,6,30,50,34,35,35"
    dtnsim.node[12].app.start = "69,75,8,73,34,92,58,86,47,40,10,17,29,27,87,8,61,73,85,81,71,34,98,12,16,47,51,17,26,47,62,40,87,23,60,22,1,88,87,96,83,10,17,76,3,58,63,85,42,5,96,63,59,40,7,81,99,25,80,79,60,60,19,39,83,65,41,53,82,65,51,29,40,96,79,91,32,20,50,87,91,58,13,78,40,14,71,43,42,55,11,21,88,32,51,1,49,93,88,66"
    dtnsim.node[12].app.destinationEid = "51,22,100,124,69,23,104,75,103,13,41,70,120,79,157,74,29,136,20,88,150,138,37,65,44,140,176,39,84,117,179,79,41,48,175,63,102,30,29,40,73,133,103,2,52,143,14,156,6,142,165,92,62,19,20,10,75,47,106,159,3,123,92,11,65,4,170,7,135,154,137,137,46,22,177,75,53,55,135,128,63,98,25,43,8,5,40,38,10,26,97,150,164,172,179,174,72,163,92,112"
    dtnsim.node[12].app.size = "100,200,500,200,50,200,200,200,100,50,50,500,200,200,500,50,100,500,50,100,200,500,100,200,50,100,100,100,50,500,500,100,500,500,100,500,500,100,50,500,500,50,100,200,200,500,100,200,100,50,200,500,200,200,50,50,100,50,500,500,50,500,50,50,500,50,100,200,200,500,50,500,500,100,200,200,200,500,200,100,200,100,500,100,100,500,100,500,200,100,50,500,50,500,50,50,500,100,50,50"
            # Node 13 random traffic
    dtnsim.node[13].app.enable = true
    dtnsim.node[13].app.bundlesNumber = "3,2,14,2,31,48,47,16,49,50,42,26,8,22,40,15,39,16,47,37,8,38,21,15,24,35,1,32,25,2,23,48,23,12,2,1,16,44,24,5,19,42,22,10,37,18,2,30,40,10,8,36,1,44,40,17,30,24,38,6,11,35,31,6,50,47,35,47,41,41,43,1,20,14,43,24,20,39,2,17,19,3,41,16,28,29,16,40,32,36,9,35,48,8,12,7,44,29,49,7"
    dtnsim.node[13].app.start = "90,35,88,80,85,55,69,54,88,10,29,97,74,69,30,32,85,1,48,57,12,34,52,49,55,11,32,18,60,60,83,89,86,72,79,86,85,81,1,16,85,25,78,89,82,46,13,55,64,34,22,78,3,80,11,79,52,34,31,31,72,64,91,1,74,24,59,51,90,62,32,19,75,97,24,34,18,54,86,94,54,73,33,71,71,97,33,47,50,77,10,57,5,76,73,22,82,9,81,99"
    dtnsim.node[13].app.destinationEid = "161,15,34,66,133,174,111,166,86,17,65,148,145,25,70,15,80,177,68,87,73,91,88,167,22,85,122,98,134,98,113,176,42,17,58,93,150,51,104,140,26,134,138,83,106,88,19,57,118,87,45,49,175,80,82,38,86,95,68,167,47,110,84,39,34,118,6,29,5,24,5,47,98,119,146,102,132,21,98,136,23,73,159,93,22,111,34,6,178,89,72,62,87,136,172,40,95,59,121,26"
    dtnsim.node[13].app.size = "200,50,200,100,500,100,100,100,100,500,50,100,50,200,200,100,500,500,500,500,50,100,50,50,100,50,200,200,200,100,500,500,200,100,100,100,100,500,500,50,500,100,100,50,200,500,200,200,200,50,50,100,500,50,50,50,500,500,200,100,500,100,200,100,50,50,100,200,50,100,100,500,100,100,200,500,500,200,500,500,500,50,100,500,200,50,100,50,50,100,200,50,100,200,50,50,100,500,50,200"
            # Node 14 random traffic
    dtnsim.node[14].app.enable = true
    dtnsim.node[14].app.bundlesNumber = "24,41,49,21,1,39,28,35,39,37,35,18,35,6,45,3,14,32,44,5,34,24,15,6,33,45,8,39,21,7,26,9,3,3,14,38,2,46,19,39,49,50,6,38,40,22,22,21,18,16,11,41,37,17,2,40,16,11,18,4,22,46,12,40,18,45,47,46,1,28,50,17,13,50,48,49,16,9,7,16,7,50,19,8,47,38,43,9,8,24,26,24,33,35,48,34,45,11,14,26"
    dtnsim.node[14].app.start = "15,18,4,53,20,1,63,1,37,82,4,74,21,37,12,11,86,97,20,13,96,52,7,28,13,100,1,44,34,59,64,79,80,85,59,37,90,19,73,36,49,25,53,21,98,2,17,57,36,70,6,70,25,12,90,3,94,94,59,90,8,19,7,88,78,50,14,77,58,20,13,32,81,71,47,66,52,27,39,40,57,93,48,31,89,27,50,10,71,100,86,64,46,84,25,17,88,39,71,50"
    dtnsim.node[14].app.destinationEid = "171,26,170,114,140,36,36,4,122,146,69,127,34,122,97,35,73,43,156,73,143,121,150,177,132,60,172,134,70,179,33,87,142,139,27,33,22,58,43,50,171,7,8,150,116,64,28,128,50,97,137,71,9,151,113,34,47,152,150,148,63,100,91,143,9,162,163,15,23,135,117,1,136,2,29,78,57,69,140,153,10,1,15,71,11,82,10,129,56,23,116,81,137,51,123,140,102,17,142,57"
    dtnsim.node[14].app.size = "200,200,100,200,50,50,200,50,500,200,200,200,500,50,500,200,200,200,500,50,200,100,100,200,500,200,500,50,50,50,500,50,100,500,200,200,500,100,200,50,200,100,50,500,50,100,50,500,100,50,50,50,100,50,200,200,50,500,200,200,50,100,50,50,100,200,500,200,100,50,50,100,100,500,100,50,50,100,200,200,500,200,500,500,200,100,100,200,200,100,100,200,50,50,50,100,50,500,500,500"
            # Node 15 random traffic
    dtnsim.node[15].app.enable = true
    dtnsim.node[15].app.bundlesNumber = "32,43,24,21,1,31,49,30,3,20,41,50,38,36,31,23,33,8,49,18,38,4,45,21,49,29,33,41,9,48,8,16,1,6,29,18,19,36,23,16,33,18,5,7,22,10,12,20,24,41,26,3,47,32,10,21,18,21,19,14,14,47,18,23,35,28,15,39,10,5,49,21,25,34,13,32,39,5,4,32,42,7,8,24,8,44,44,14,44,37,43,37,35,26,10,23,17,6,24,19"
    dtnsim.node[15].app.start = "14,67,35,99,17,34,57,75,2,59,2,19,62,77,82,62,7,25,12,90,18,24,83,10,42,11,50,28,68,59,90,29,46,75,52,77,78,7,63,51,88,1,47,31,20,62,3,44,2,56,86,29,44,58,82,79,48,64,63,91,80,81,94,3,15,87,26,70,36,86,54,69,63,40,5,84,87,31,12,82,45,78,57,57,12,88,20,32,86,19,69,88,60,14,80,92,30,48,47,22"
    dtnsim.node[15].app.destinationEid = "160,66,131,140,166,59,81,26,156,34,121,55,168,55,109,107,73,146,25,24,89,60,27,74,155,58,46,12,94,106,180,108,97,72,68,31,90,12,144,41,132,25,151,160,48,171,85,18,24,75,94,24,154,174,78,130,28,60,66,121,9,163,6,133,76,38,25,79,90,142,37,100,159,35,114,136,75,26,34,38,28,35,54,151,55,170,101,52,85,26,174,45,165,134,73,111,17,178,128,81"
    dtnsim.node[15].app.size = "50,100,50,200,500,50,500,500,50,200,200,500,500,500,50,500,500,50,200,200,500,200,100,50,500,500,50,500,100,50,500,100,200,500,100,200,100,500,100,100,500,500,100,200,50,50,100,500,50,200,200,500,100,200,50,50,50,100,200,200,200,200,500,200,200,500,100,500,500,500,100,100,500,100,50,100,200,500,50,500,500,50,100,200,100,100,100,100,500,200,50,200,500,500,500,200,500,200,500,50"
            # Node 16 random traffic
    dtnsim.node[16].app.enable = true
    dtnsim.node[16].app.bundlesNumber = "10,31,10,5,27,16,43,11,15,26,24,24,39,50,22,5,29,22,7,12,28,50,15,6,48,47,1,4,19,1,9,47,44,7,39,8,14,18,9,14,38,40,11,24,11,2,27,32,49,32,9,35,37,3,50,26,34,31,24,28,47,26,29,23,7,50,10,10,8,23,33,20,23,36,23,24,38,45,24,24,36,32,23,38,12,38,26,1,36,29,33,16,39,11,33,2,37,8,46,19"
    dtnsim.node[16].app.start = "13,1,20,29,73,42,7,80,65,66,9,2,44,85,14,46,5,58,50,66,23,52,48,73,95,52,15,88,2,89,72,51,60,7,75,14,55,76,20,12,69,71,69,1,13,39,35,36,37,33,33,39,98,43,32,28,10,36,76,55,88,40,4,10,88,29,49,40,45,90,96,3,22,81,23,22,100,10,95,3,92,85,97,73,56,94,49,30,33,56,31,96,70,73,14,83,96,13,28,3"
    dtnsim.node[16].app.destinationEid = "96,61,179,5,72,165,103,159,36,63,165,54,25,133,18,132,29,5,67,134,67,81,36,130,147,17,35,85,33,73,7,54,21,91,2,87,179,18,29,115,139,101,176,180,115,93,51,53,106,115,129,172,36,118,161,7,41,156,140,40,6,36,39,123,4,96,63,70,72,109,141,10,2,128,36,12,142,132,141,83,73,89,24,32,30,31,93,151,139,139,113,26,125,86,159,110,162,160,12,47"
    dtnsim.node[16].app.size = "100,500,50,100,200,500,50,50,200,500,100,100,500,100,50,50,100,500,50,500,50,500,100,200,100,50,100,200,500,200,100,50,200,500,500,100,200,100,50,50,50,200,500,200,200,500,500,100,500,50,500,200,200,500,100,100,200,50,50,200,50,500,50,200,500,100,200,50,500,200,200,100,100,50,500,100,100,50,200,200,200,200,200,500,50,500,200,50,50,100,50,50,50,100,100,500,200,500,200,50"
            # Node 17 random traffic
    dtnsim.node[17].app.enable = true
    dtnsim.node[17].app.bundlesNumber = "35,33,40,40,48,27,2,28,5,21,31,19,43,14,31,11,32,48,17,30,15,44,21,31,40,19,45,33,21,14,7,12,41,41,14,50,24,19,40,29,17,6,39,7,26,7,36,12,50,37,48,42,28,35,32,32,50,22,41,30,42,5,5,47,37,2,15,26,22,38,1,11,24,7,4,17,29,15,13,42,29,47,8,8,4,21,5,20,34,32,12,39,42,2,13,11,35,3,44,20"
    dtnsim.node[17].app.start = "85,56,65,67,58,17,5,19,61,55,25,79,44,13,86,37,45,53,27,77,5,43,1,20,97,97,73,17,53,81,16,63,47,43,75,52,33,92,49,96,17,15,35,86,75,3,28,41,74,72,59,15,49,41,54,82,67,47,98,2,76,62,53,80,2,98,53,49,88,58,4,68,99,13,34,86,29,1,51,57,48,23,42,75,6,80,19,28,62,46,13,9,18,33,53,46,42,84,50,38"
    dtnsim.node[17].app.destinationEid = "88,82,47,162,112,71,143,116,161,49,159,48,139,173,10,31,98,144,133,45,116,118,40,137,48,47,126,172,61,99,117,160,66,93,138,46,122,21,114,19,128,62,132,90,125,176,180,77,95,64,58,43,115,115,78,141,96,75,68,138,110,60,37,58,83,60,40,45,116,62,65,33,44,49,30,163,124,55,96,77,15,172,5,156,117,24,1,47,155,86,80,28,108,8,178,10,12,74,157,8"
    dtnsim.node[17].app.size = "50,200,50,200,200,200,50,100,100,100,50,200,500,200,500,500,50,50,50,200,200,50,100,50,50,50,200,100,50,500,500,200,50,50,50,50,500,500,50,500,500,500,500,200,200,500,100,500,200,100,100,50,50,200,50,200,50,200,200,200,200,50,50,50,100,200,500,200,200,500,100,50,50,50,100,500,100,100,500,500,200,100,50,200,200,200,500,500,50,200,200,50,200,200,200,100,100,500,500,100"
            # Node 18 random traffic
    dtnsim.node[18].app.enable = true
    dtnsim.node[18].app.bundlesNumber = "12,14,49,23,31,2,44,22,16,27,10,31,5,30,30,36,18,44,41,31,26,5,14,37,8,31,25,36,3,46,50,5,29,8,31,31,23,28,23,15,48,24,39,21,22,41,20,36,48,26,19,40,46,30,44,33,41,7,27,32,27,31,32,44,39,12,43,27,39,32,43,50,47,34,36,14,1,26,40,34,27,1,43,8,13,21,18,25,43,41,42,45,30,22,50,9,9,29,43,36"
    dtnsim.node[18].app.start = "37,66,99,22,39,13,78,11,90,69,1,23,17,4,46,94,65,33,86,30,56,86,56,44,47,90,4,37,18,33,88,70,78,11,19,8,91,62,89,36,94,12,55,2,21,70,63,77,28,73,91,97,68,14,35,31,98,91,38,41,37,11,83,36,41,27,16,78,70,59,33,29,64,69,35,10,85,22,10,98,17,38,26,91,19,40,78,100,15,90,43,56,77,2,29,58,64,21,51,48"
    dtnsim.node[18].app.destinationEid = "177,49,76,140,161,131,174,147,123,116,163,178,87,17,127,174,92,62,146,90,74,8,48,136,137,148,153,102,2,149,119,27,53,73,41,110,112,126,59,30,125,60,40,10,93,103,38,125,4,34,134,180,48,158,28,26,144,94,110,101,151,6,31,122,78,67,105,99,13,42,72,107,22,84,150,104,50,30,53,130,169,96,147,55,65,103,100,142,75,165,159,66,66,135,47,12,128,102,1,178"
    dtnsim.node[18].app.size = "100,200,100,500,500,100,500,200,200,50,500,50,500,50,50,50,100,500,100,500,100,50,100,200,200,500,500,500,50,500,100,500,500,50,200,500,50,500,50,100,500,50,100,100,200,200,200,200,200,50,100,100,50,500,100,200,100,100,100,100,100,100,200,500,200,200,50,200,200,500,50,200,100,100,100,500,200,500,500,500,500,50,200,500,100,50,50,50,100,500,500,200,50,200,50,50,200,500,500,200"
            # Node 19 random traffic
    dtnsim.node[19].app.enable = true
    dtnsim.node[19].app.bundlesNumber = "42,45,32,49,14,11,12,41,24,22,42,48,5,42,28,48,10,47,16,2,35,7,38,47,50,46,30,50,41,20,9,8,10,21,15,45,46,15,9,6,7,21,10,28,22,27,9,50,28,46,23,48,15,37,37,11,12,23,6,41,9,39,40,13,45,5,23,22,39,10,1,9,35,25,2,49,42,16,21,21,48,45,45,4,31,18,34,23,35,37,13,15,42,5,42,38,16,8,14,44"
    dtnsim.node[19].app.start = "94,72,94,37,15,9,33,71,32,82,97,38,72,32,48,81,5,50,77,2,94,69,27,73,32,76,62,80,37,39,50,26,81,93,72,100,83,46,27,49,59,28,34,81,93,48,52,66,7,90,33,79,33,35,19,92,55,72,76,56,24,4,58,36,97,68,53,51,58,73,70,22,1,82,69,42,4,87,60,91,34,92,41,67,45,64,95,60,93,36,56,66,19,72,100,18,92,77,22,28"
    dtnsim.node[19].app.destinationEid = "48,74,152,87,43,100,99,18,77,173,139,85,98,63,124,66,22,152,88,40,156,86,141,10,7,115,22,74,11,156,6,55,125,5,3,64,174,56,66,58,45,73,133,124,53,52,14,154,163,175,9,68,27,153,116,33,163,92,164,71,113,108,24,126,137,114,5,160,1,169,91,61,108,86,176,27,122,67,76,163,97,65,10,31,39,148,143,99,46,98,157,69,126,23,150,59,155,118,132,117"
    dtnsim.node[19].app.size = "200,50,500,200,100,200,200,200,50,50,200,50,500,500,100,500,200,100,500,500,100,200,200,100,50,50,200,100,500,500,500,500,100,50,100,100,200,500,50,50,200,500,500,200,50,100,200,50,200,50,100,200,500,200,100,100,50,50,50,200,100,500,200,200,500,50,50,500,100,100,100,200,200,500,500,500,50,500,100,500,50,100,50,500,50,200,200,50,500,50,50,50,50,100,100,50,200,100,500,500"
            # Node 20 random traffic
    dtnsim.node[20].app.enable = true
    dtnsim.node[20].app.bundlesNumber = "27,38,29,22,8,8,11,2,3,36,46,1,24,24,49,38,7,41,4,16,25,31,8,42,17,31,12,17,50,34,12,42,30,3,33,31,8,43,8,17,11,28,45,35,27,37,18,26,34,28,31,12,32,9,28,37,10,12,32,1,18,2,45,10,21,26,14,33,38,14,30,45,37,14,5,14,9,38,39,22,11,17,9,31,21,1,17,35,30,16,19,43,35,44,46,35,3,39,24,28"