[General]
network = src.dtnsim										
repeat = 1
allow-object-stealing-on-deletion = true

# Simulation end time
sim-time-limit = 84600s

# Nodes quantity (identifiers (EiDs) matches their index, EiD=0 is ignored)			
dtnsim.nodesNumber = 360
dtnsim.node[*].icon = "satellite"

# Nodes's failure rates
dtnsim.node[*].fault.enable = true
dtnsim.node[*].fault.meanTTF = 190s
dtnsim.node[*].fault.meanTTR = 10s

# Mobility
dtnsim.node[*].hasMobility = true
dtnsim.node[*].noradModule.satIndex = parentIndex()
dtnsim.node[*].noradModule.satName = "sat"
**.updateInterval = 20s
**.numOfSats = 360
**.satPerPlane = 18
**.altitude = 540
**.planes = 20
**.phaseOffset = 11

dtnsim.node[*].dtn.routing = "antop"
dtnsim.node[*].dtn.printRoutingDebug = true

# --- Random Traffic Configuration ---
# Node 1 random traffic
dtnsim.node[1].app.enable = true
dtnsim.node[1].app.bundlesNumber = "1,1,1,1,1,1,1,1,1,1,1,1,1,1,1,1,1,1,1,1,1,1,1,1,1,1,1,1,1,1,1,1,1,1,1,1,1,1,1,1,1,1,1,1,1,1,1,1,1,1,1,1,1,1,1,1,1,1,1,1,1,1,1,1,1,1,1,1,1,1,1,1,1,1,1,1,1,1,1,1,1,1,1,1,1,1,1,1,1,1,1,1,1,1,1,1,1,1,1,1"
dtnsim.node[1].app.start = "8,18,9,17,5,9,6,20,3,14,18,8,7,13,11,7,18,4,2,16,2,9,19,13,13,4,15,5,11,13,6,16,12,12,6,13,19,11,10,2,4,15,2,17,8,15,1,8,3,8,12,15,11,17,12,20,5,8,14,7,13,2,11,5,6,8,6,12,3,10,10,9,11,7,18,15,10,2,13,16,10,1,8,10,1,14,18,5,10,15,3,10,7,3,19,3,13,5,10,8"
dtnsim.node[1].app.destinationEid = "209,134,215,228,331,138,164,359,187,80,56,222,123,248,272,259,226,126,138,332,189,131,213,356,8,89,299,304,96,253,53,155,86,239,162,332,305,285,107,184,352,84,273,62,242,93,48,38,293,330,155,96,118,298,250,242,293,172,226,87,277,88,318,259,324,287,321,198,157,19,75,309,157,78,323,245,303,102,80,282,184,350,243,353,258,278,90,167,88,299,360,233,195,335,284,221,349,76,25,275"
dtnsim.node[1].app.size = "200,50,50,50,200,100,500,500,500,500,500,50,200,100,500,50,50,50,50,50,100,500,500,500,200,500,200,500,50,50,100,500,100,50,100,50,500,200,500,100,500,50,100,500,200,200,200,50,500,100,50,100,200,50,500,100,100,200,100,500,100,50,100,200,200,500,100,50,50,100,200,100,100,500,100,100,50,200,500,100,200,500,100,50,50,50,50,50,200,500,100,50,50,200,50,50,500,50,50,100"
        # Node 2 random traffic
dtnsim.node[2].app.enable = true
dtnsim.node[2].app.bundlesNumber = "1,1,1,1,1,1,1,1,1,1,1,1,1,1,1,1,1,1,1,1,1,1,1,1,1,1,1,1,1,1,1,1,1,1,1,1,1,1,1,1,1,1,1,1,1,1,1,1,1,1,1,1,1,1,1,1,1,1,1,1,1,1,1,1,1,1,1,1,1,1,1,1,1,1,1,1,1,1,1,1,1,1,1,1,1,1,1,1,1,1,1,1,1,1,1,1,1,1,1,1"
dtnsim.node[2].app.start = "10,12,1,5,6,13,19,13,8,14,4,12,17,9,15,11,8,1,7,14,19,12,12,12,7,16,3,17,18,15,20,19,6,16,18,8,15,13,19,17,10,10,14,15,11,6,2,10,3,4,13,9,12,10,7,19,15,5,18,1,14,18,18,8,18,6,10,13,6,6,6,13,16,3,2,4,6,18,10,6,2,10,9,11,3,9,19,15,10,15,3,14,7,9,6,12,16,1,15,4"
dtnsim.node[2].app.destinationEid = "291,67,164,214,208,326,340,185,165,187,246,59,341,101,138,299,176,1,161,9,77,87,327,354,23,266,294,335,55,231,79,185,164,62,184,212,219,202,357,31,311,209,143,162,58,145,284,56,92,339,121,210,151,356,319,126,6,198,226,181,336,138,102,266,121,232,137,226,71,262,358,261,13,228,299,168,41,252,233,211,24,67,299,90,21,298,312,251,91,287,165,157,82,29,180,289,12,235,235,240"
dtnsim.node[2].app.size = "200,500,500,200,100,50,200,500,200,100,50,100,500,500,500,100,100,100,50,100,200,50,50,500,200,50,200,100,50,50,500,200,500,200,500,200,50,200,500,500,50,200,50,500,100,200,200,200,100,500,50,200,500,50,100,500,50,100,50,500,100,500,200,50,50,100,500,50,500,100,50,500,50,500,100,50,200,200,100,50,200,500,500,50,50,500,50,200,100,50,100,200,500,50,100,50,50,100,200,50"
        # Node 3 random traffic
dtnsim.node[3].app.enable = true
dtnsim.node[3].app.bundlesNumber = "1,1,1,1,1,1,1,1,1,1,1,1,1,1,1,1,1,1,1,1,1,1,1,1,1,1,1,1,1,1,1,1,1,1,1,1,1,1,1,1,1,1,1,1,1,1,1,1,1,1,1,1,1,1,1,1,1,1,1,1,1,1,1,1,1,1,1,1,1,1,1,1,1,1,1,1,1,1,1,1,1,1,1,1,1,1,1,1,1,1,1,1,1,1,1,1,1,1,1,1"
dtnsim.node[3].app.start = "7,7,8,2,20,20,11,17,6,5,4,4,11,3,12,14,1,8,14,13,18,13,19,11,4,9,7,5,15,14,12,4,8,15,7,11,9,13,4,18,16,6,5,16,20,8,16,1,3,20,5,9,18,11,14,3,19,5,19,13,16,20,14,2,5,5,10,5,16,20,3,11,17,2,12,15,1,15,5,12,9,14,8,20,10,19,20,14,15,8,20,15,9,14,20,18,16,18,13,18"
dtnsim.node[3].app.destinationEid = "229,243,209,187,50,52,252,117,47,157,120,264,207,114,246,305,331,56,55,80,235,207,318,58,237,217,82,73,146,66,160,240,341,9,29,292,182,45,160,297,288,47,338,54,161,306,208,190,319,101,313,226,14,236,253,315,129,54,120,70,289,338,194,130,283,356,261,170,323,248,154,243,239,273,137,296,57,309,121,119,232,95,164,120,232,160,33,92,158,248,207,68,278,77,13,97,308,140,175,260"
dtnsim.node[3].app.size = "100,500,200,500,500,100,500,100,500,100,50,100,100,200,50,100,200,100,50,100,200,100,50,50,200,500,500,100,500,500,100,100,100,50,200,100,100,50,500,200,50,200,100,50,100,500,50,500,50,500,100,200,50,100,100,500,500,500,200,100,50,50,50,500,500,50,500,100,200,500,500,50,500,500,500,200,200,100,500,500,500,500,500,50,100,200,200,50,500,50,50,200,200,50,500,500,500,100,200,50"
        # Node 4 random traffic
dtnsim.node[4].app.enable = true
dtnsim.node[4].app.bundlesNumber = "1,1,1,1,1,1,1,1,1,1,1,1,1,1,1,1,1,1,1,1,1,1,1,1,1,1,1,1,1,1,1,1,1,1,1,1,1,1,1,1,1,1,1,1,1,1,1,1,1,1,1,1,1,1,1,1,1,1,1,1,1,1,1,1,1,1,1,1,1,1,1,1,1,1,1,1,1,1,1,1,1,1,1,1,1,1,1,1,1,1,1,1,1,1,1,1,1,1,1,1"
dtnsim.node[4].app.start = "9,11,5,1,2,19,13,7,2,18,6,14,2,11,2,12,20,16,1,4,8,10,15,7,2,6,6,1,15,16,17,9,11,2,20,12,5,1,13,16,1,6,19,18,4,4,3,1,4,17,15,15,2,4,10,6,9,5,1,4,15,1,4,19,18,1,6,7,2,11,10,3,16,3,13,19,14,18,10,11,4,6,2,16,20,17,7,17,14,9,20,2,11,7,18,5,15,1,10,9"
dtnsim.node[4].app.destinationEid = "232,276,279,323,219,195,349,150,167,64,264,44,44,8,133,180,277,38,312,166,238,17,324,114,349,336,276,189,132,142,264,134,245,318,133,198,354,314,88,43,177,54,298,345,208,137,277,280,334,34,52,49,258,5,339,262,281,191,196,227,22,116,333,161,360,132,237,105,262,220,240,250,187,15,205,236,122,285,96,343,338,46,163,79,280,266,246,157,182,200,170,129,110,266,279,6,251,318,198,323"
dtnsim.node[4].app.size = "500,200,100,200,500,500,50,50,200,200,500,500,50,100,100,100,50,200,200,200,100,500,200,500,100,500,50,100,50,200,500,500,100,200,100,50,50,50,200,50,50,500,50,200,500,500,500,200,100,200,200,50,50,50,200,500,100,50,50,50,200,100,50,500,100,50,100,500,100,500,200,200,200,500,500,50,50,50,200,50,200,200,50,100,100,500,200,50,50,200,200,200,500,500,100,500,50,100,200,500"
        # Node 5 random traffic
dtnsim.node[5].app.enable = true
dtnsim.node[5].app.bundlesNumber = "1,1,1,1,1,1,1,1,1,1,1,1,1,1,1,1,1,1,1,1,1,1,1,1,1,1,1,1,1,1,1,1,1,1,1,1,1,1,1,1,1,1,1,1,1,1,1,1,1,1,1,1,1,1,1,1,1,1,1,1,1,1,1,1,1,1,1,1,1,1,1,1,1,1,1,1,1,1,1,1,1,1,1,1,1,1,1,1,1,1,1,1,1,1,1,1,1,1,1,1"
dtnsim.node[5].app.start = "17,6,5,15,10,6,8,18,13,4,4,14,16,20,16,7,10,2,4,7,19,8,19,7,10,17,5,16,7,18,18,7,3,3,9,16,9,1,12,15,19,11,3,12,6,1,1,18,16,12,19,10,16,17,9,6,8,5,5,9,19,8,2,16,4,5,15,19,17,4,12,2,14,17,4,10,2,18,9,5,12,4,3,1,6,16,7,15,17,18,13,8,12,10,17,8,9,6,18,4"
dtnsim.node[5].app.destinationEid = "282,235,189,117,53,157,284,159,320,294,50,272,20,97,104,271,222,321,316,38,29,249,297,2,145,93,10,56,52,233,303,360,91,188,357,118,187,31,263,70,304,221,302,150,326,277,11,303,30,356,68,91,131,220,271,109,321,12,324,74,283,44,182,77,244,202,276,100,229,288,83,166,340,317,89,127,253,358,24,262,331,296,36,249,317,142,61,64,165,242,161,297,62,326,309,70,109,49,187,24"
dtnsim.node[5].app.size = "100,500,100,200,50,100,500,50,500,100,100,50,100,100,500,50,500,500,500,100,100,500,100,50,200,500,500,50,50,200,100,50,100,500,500,100,500,100,200,500,200,200,100,200,100,200,500,500,200,500,100,100,50,500,100,50,500,500,200,50,100,50,50,100,200,50,50,500,100,100,100,200,200,200,100,500,50,200,500,200,100,100,200,100,100,100,200,200,50,200,200,500,100,50,50,100,500,100,100,100"
        # Node 6 random traffic
dtnsim.node[6].app.enable = true
dtnsim.node[6].app.bundlesNumber = "1,1,1,1,1,1,1,1,1,1,1,1,1,1,1,1,1,1,1,1,1,1,1,1,1,1,1,1,1,1,1,1,1,1,1,1,1,1,1,1,1,1,1,1,1,1,1,1,1,1,1,1,1,1,1,1,1,1,1,1,1,1,1,1,1,1,1,1,1,1,1,1,1,1,1,1,1,1,1,1,1,1,1,1,1,1,1,1,1,1,1,1,1,1,1,1,1,1,1,1"
dtnsim.node[6].app.start = "2,18,6,11,9,8,10,20,9,4,3,10,9,8,17,12,4,5,12,6,19,1,9,19,19,14,3,12,12,16,15,4,19,6,5,15,16,3,17,15,19,14,17,6,18,15,9,9,13,16,6,12,2,1,1,6,3,20,1,1,18,19,19,13,17,2,11,17,3,1,15,12,8,6,10,16,12,16,9,6,17,11,6,17,4,10,15,6,10,9,4,3,8,10,10,19,6,10,11,20"
dtnsim.node[6].app.destinationEid = "120,336,65,275,115,360,291,335,206,275,94,211,222,231,116,156,11,92,117,307,226,102,48,168,45,69,104,187,290,149,265,279,297,231,157,165,90,16,50,266,195,136,31,269,75,242,9,83,71,103,70,128,71,67,49,16,292,74,258,158,347,309,307,125,230,351,75,99,312,52,76,28,326,98,66,63,254,135,107,262,284,160,67,153,212,201,196,220,85,87,139,304,344,111,300,305,242,179,297,335"
dtnsim.node[6].app.size = "500,500,50,200,50,100,500,200,50,50,100,200,50,50,500,100,500,200,100,200,200,100,500,500,50,500,200,500,500,100,200,200,200,50,50,500,50,200,500,200,500,200,100,500,50,50,50,100,100,200,500,100,200,200,200,100,200,50,50,50,100,500,100,500,50,200,200,200,500,500,200,500,100,100,100,500,100,100,50,100,100,200,100,200,200,500,100,50,500,100,50,200,50,500,200,200,50,500,500,200"
        # Node 7 random traffic
dtnsim.node[7].app.enable = true
dtnsim.node[7].app.bundlesNumber = "1,1,1,1,1,1,1,1,1,1,1,1,1,1,1,1,1,1,1,1,1,1,1,1,1,1,1,1,1,1,1,1,1,1,1,1,1,1,1,1,1,1,1,1,1,1,1,1,1,1,1,1,1,1,1,1,1,1,1,1,1,1,1,1,1,1,1,1,1,1,1,1,1,1,1,1,1,1,1,1,1,1,1,1,1,1,1,1,1,1,1,1,1,1,1,1,1,1,1,1"
dtnsim.node[7].app.start = "2,3,3,9,19,2,18,19,9,7,1,13,7,1,5,6,9,11,3,1,10,3,11,3,13,4,9,4,9,3,19,5,20,2,2,8,1,15,18,3,7,15,13,17,7,14,15,12,8,11,13,12,3,9,11,19,20,4,19,2,11,10,6,20,19,15,6,18,8,16,8,6,18,13,9,8,19,11,5,3,3,11,12,16,16,15,6,5,12,4,19,6,14,6,3,20,6,3,1,10"
dtnsim.node[7].app.destinationEid = "298,82,162,248,148,137,99,61,167,146,226,358,158,117,74,128,125,145,108,45,275,243,344,290,115,208,95,95,143,78,46,333,82,200,169,278,70,332,313,359,228,265,52,51,228,349,75,324,140,337,224,79,98,110,208,164,198,206,194,189,40,22,232,342,284,324,341,142,301,286,22,156,11,244,126,337,163,247,302,117,68,340,355,359,297,285,21,347,99,148,331,270,116,147,8,333,45,35,266,30"
dtnsim.node[7].app.size = "50,200,200,500,500,200,200,50,100,50,100,50,500,500,100,100,200,200,500,100,500,500,50,500,500,50,50,100,100,500,200,200,500,100,500,50,200,100,200,100,100,500,500,100,50,100,100,50,50,50,50,50,200,500,100,200,200,100,500,100,100,200,100,200,500,200,50,200,50,50,100,200,200,500,200,100,100,200,50,500,500,200,200,100,200,500,200,50,500,200,500,50,50,100,100,500,100,100,500,100"
        # Node 8 random traffic
dtnsim.node[8].app.enable = true
dtnsim.node[8].app.bundlesNumber = "1,1,1,1,1,1,1,1,1,1,1,1,1,1,1,1,1,1,1,1,1,1,1,1,1,1,1,1,1,1,1,1,1,1,1,1,1,1,1,1,1,1,1,1,1,1,1,1,1,1,1,1,1,1,1,1,1,1,1,1,1,1,1,1,1,1,1,1,1,1,1,1,1,1,1,1,1,1,1,1,1,1,1,1,1,1,1,1,1,1,1,1,1,1,1,1,1,1,1,1"
dtnsim.node[8].app.start = "9,4,19,15,1,11,16,13,8,5,18,1,7,20,13,15,18,10,11,18,11,17,3,4,16,1,10,17,11,4,1,18,3,3,5,16,3,4,14,6,3,14,12,4,4,18,9,5,11,19,1,18,16,19,19,10,6,19,7,1,4,9,18,20,14,13,4,4,11,1,11,11,9,5,8,16,4,6,9,1,14,6,17,5,13,4,18,2,15,11,8,17,13,20,17,2,11,5,19,18"
dtnsim.node[8].app.destinationEid = "241,217,119,69,198,238,29,307,181,116,66,327,4,157,10,336,273,105,115,257,287,281,16,92,195,218,3,302,44,38,315,106,343,273,216,209,127,359,265,206,9,63,65,198,21,272,7,196,39,123,146,62,74,9,28,48,20,234,24,276,57,13,235,226,139,176,205,194,221,70,117,184,168,46,30,238,185,30,153,129,178,68,140,309,268,280,80,359,298,1,70,3,155,278,241,343,23,21,266,66"
dtnsim.node[8].app.size = "100,50,50,200,100,50,500,50,500,500,100,50,100,500,50,500,500,500,500,100,100,200,50,50,100,100,200,500,500,500,100,100,100,100,500,50,100,200,200,200,100,200,500,100,200,500,500,500,50,200,500,200,500,200,500,50,500,50,50,500,200,200,50,500,500,100,100,200,500,100,50,500,500,100,50,100,100,200,500,50,100,500,100,100,50,500,500,500,100,100,500,50,200,100,50,500,500,500,100,500"
        # Node 9 random traffic
dtnsim.node[9].app.enable = true
dtnsim.node[9].app.bundlesNumber = "1,1,1,1,1,1,1,1,1,1,1,1,1,1,1,1,1,1,1,1,1,1,1,1,1,1,1,1,1,1,1,1,1,1,1,1,1,1,1,1,1,1,1,1,1,1,1,1,1,1,1,1,1,1,1,1,1,1,1,1,1,1,1,1,1,1,1,1,1,1,1,1,1,1,1,1,1,1,1,1,1,1,1,1,1,1,1,1,1,1,1,1,1,1,1,1,1,1,1,1"
dtnsim.node[9].app.start = "1,17,19,6,12,3,11,20,15,18,6,1,9,3,20,18,16,18,12,10,8,20,3,11,15,4,11,3,9,10,1,19,9,10,13,8,6,19,11,7,18,18,17,20,5,15,14,14,17,1,7,4,1,20,15,11,11,9,18,5,15,15,7,11,19,9,13,12,17,13,11,14,8,15,16,9,17,9,6,4,10,12,3,12,9,1,4,18,5,1,19,4,6,12,8,4,13,18,11,5"
dtnsim.node[9].app.destinationEid = "52,6,168,2,326,225,340,94,66,101,339,302,154,187,263,175,321,192,313,204,241,285,220,150,110,68,335,205,94,243,12,76,241,254,91,292,179,44,223,224,281,301,149,31,26,322,159,25,59,22,152,160,300,236,238,274,216,237,29,151,245,57,259,127,47,267,332,202,344,30,249,278,171,277,352,104,163,181,334,265,328,139,210,28,261,310,116,151,217,347,104,146,123,155,142,126,199,308,333,103"
dtnsim.node[9].app.size = "500,100,100,500,200,50,100,100,100,500,100,200,200,50,100,200,200,50,500,100,500,500,50,500,50,200,500,200,100,500,200,500,50,200,200,200,50,500,50,200,50,50,100,500,500,100,500,100,50,200,200,500,50,100,50,100,50,500,50,50,100,50,200,100,500,100,500,100,100,50,50,500,500,200,50,500,200,200,500,500,50,500,100,50,200,500,50,500,100,500,200,100,500,100,100,200,100,500,100,100"
        # Node 10 random traffic
dtnsim.node[10].app.enable = true
dtnsim.node[10].app.bundlesNumber = "1,1,1,1,1,1,1,1,1,1,1,1,1,1,1,1,1,1,1,1,1,1,1,1,1,1,1,1,1,1,1,1,1,1,1,1,1,1,1,1,1,1,1,1,1,1,1,1,1,1,1,1,1,1,1,1,1,1,1,1,1,1,1,1,1,1,1,1,1,1,1,1,1,1,1,1,1,1,1,1,1,1,1,1,1,1,1,1,1,1,1,1,1,1,1,1,1,1,1,1"
dtnsim.node[10].app.start = "4,1,8,2,5,19,3,11,9,3,2,20,8,7,6,13,2,20,14,10,19,11,12,3,16,6,20,14,5,16,14,15,19,7,19,18,14,12,12,6,9,8,11,8,11,10,4,3,13,16,1,14,6,11,9,11,10,6,18,20,6,10,5,20,10,17,20,20,8,2,16,19,8,3,10,6,11,16,6,6,1,14,4,12,8,7,2,20,13,17,7,12,9,6,20,15,16,19,5,8"
dtnsim.node[10].app.destinationEid = "189,306,248,360,127,352,278,345,58,30,268,319,255,261,296,294,99,210,61,86,306,43,131,209,27,33,75,50,138,145,179,124,281,293,112,204,340,81,68,190,255,211,325,167,304,177,142,37,342,357,227,306,41,256,22,255,324,74,293,218,75,279,47,174,3,214,219,338,72,278,196,154,111,65,303,219,172,27,107,324,97,148,45,213,216,167,19,216,295,35,217,124,333,180,119,286,193,154,266,146"
dtnsim.node[10].app.size = "200,100,50,100,500,100,50,100,200,200,50,50,50,500,100,50,200,100,100,100,500,100,200,200,200,50,100,200,200,100,500,500,500,500,500,200,200,100,500,50,200,200,50,50,500,500,50,200,500,200,500,500,100,50,100,500,50,200,100,200,100,100,100,500,200,200,100,500,200,50,500,200,500,200,500,200,50,50,50,500,50,50,100,50,500,50,200,50,100,500,200,50,50,100,50,500,100,50,500,200"
        # Node 11 random traffic
dtnsim.node[11].app.enable = true
dtnsim.node[11].app.bundlesNumber = "1,1,1,1,1,1,1,1,1,1,1,1,1,1,1,1,1,1,1,1,1,1,1,1,1,1,1,1,1,1,1,1,1,1,1,1,1,1,1,1,1,1,1,1,1,1,1,1,1,1,1,1,1,1,1,1,1,1,1,1,1,1,1,1,1,1,1,1,1,1,1,1,1,1,1,1,1,1,1,1,1,1,1,1,1,1,1,1,1,1,1,1,1,1,1,1,1,1,1,1"
dtnsim.node[11].app.start = "13,9,8,13,9,3,4,17,11,9,16,14,10,5,20,9,7,10,13,3,1,18,2,19,3,11,9,5,18,11,15,18,19,1,10,16,14,14,4,15,15,18,6,3,7,16,13,10,16,6,14,7,10,11,14,9,19,4,17,5,7,15,4,8,5,14,2,19,5,18,19,20,7,19,2,18,5,7,9,4,12,4,15,5,8,4,14,7,14,20,10,17,5,3,19,19,11,10,16,3"
dtnsim.node[11].app.destinationEid = "122,179,123,8,219,126,54,151,288,148,114,158,336,357,199,324,351,358,54,153,153,318,346,153,213,7,182,331,46,41,333,193,198,354,267,222,318,201,1,316,347,18,239,281,208,280,53,159,179,344,303,186,299,332,199,165,358,231,79,349,245,125,184,222,222,168,188,240,141,99,27,101,180,241,103,205,51,57,251,48,36,254,40,320,130,249,98,105,197,100,183,324,254,114,257,129,20,261,32,215"
dtnsim.node[11].app.size = "100,500,200,200,100,500,500,200,500,500,500,100,500,500,50,50,200,200,50,500,200,200,200,50,500,200,100,500,100,100,200,200,200,100,200,100,500,100,200,500,100,200,200,500,500,200,200,500,50,200,500,50,50,200,50,100,500,500,100,50,100,50,500,200,100,200,500,100,50,100,200,100,500,200,50,200,500,50,100,500,200,200,500,50,500,50,50,500,50,100,50,50,200,200,200,100,100,200,500,500"
        # Node 12 random traffic
dtnsim.node[12].app.enable = true
dtnsim.node[12].app.bundlesNumber = "1,1,1,1,1,1,1,1,1,1,1,1,1,1,1,1,1,1,1,1,1,1,1,1,1,1,1,1,1,1,1,1,1,1,1,1,1,1,1,1,1,1,1,1,1,1,1,1,1,1,1,1,1,1,1,1,1,1,1,1,1,1,1,1,1,1,1,1,1,1,1,1,1,1,1,1,1,1,1,1,1,1,1,1,1,1,1,1,1,1,1,1,1,1,1,1,1,1,1,1"
dtnsim.node[12].app.start = "7,13,15,14,17,9,17,17,11,14,5,11,11,5,19,6,17,4,14,14,13,18,12,10,19,10,8,11,3,18,7,19,2,15,15,4,2,11,2,14,16,7,19,15,11,6,2,12,17,17,15,8,17,9,18,9,12,20,2,16,15,19,8,9,3,9,17,19,6,5,2,4,17,7,19,2,17,16,6,19,18,7,1,3,8,7,18,18,18,17,19,14,17,3,16,18,3,16,13,11"
dtnsim.node[12].app.destinationEid = "70,266,169,347,306,244,20,346,91,302,127,170,25,259,197,264,96,268,226,342,326,249,272,333,266,310,70,163,218,217,127,284,86,16,204,208,218,292,274,111,54,282,65,338,107,229,343,280,292,173,89,278,83,148,162,59,336,281,106,123,327,74,126,50,230,348,69,358,107,253,110,59,72,221,200,171,2,212,151,244,21,110,173,144,242,130,130,11,104,347,162,338,20,126,90,51,44,343,214,8"
dtnsim.node[12].app.size = "500,500,50,50,500,200,50,500,50,50,100,500,200,500,50,100,50,200,500,50,100,50,500,100,500,100,500,50,100,200,50,100,50,100,500,50,100,50,500,200,500,500,50,50,200,50,50,500,500,500,100,200,50,50,200,200,500,50,50,200,100,50,200,500,50,50,100,200,500,500,500,50,200,500,100,200,100,500,500,200,100,500,500,200,200,200,200,200,500,100,50,500,500,500,100,500,50,200,100,200"
        # Node 13 random traffic
dtnsim.node[13].app.enable = true
dtnsim.node[13].app.bundlesNumber = "1,1,1,1,1,1,1,1,1,1,1,1,1,1,1,1,1,1,1,1,1,1,1,1,1,1,1,1,1,1,1,1,1,1,1,1,1,1,1,1,1,1,1,1,1,1,1,1,1,1,1,1,1,1,1,1,1,1,1,1,1,1,1,1,1,1,1,1,1,1,1,1,1,1,1,1,1,1,1,1,1,1,1,1,1,1,1,1,1,1,1,1,1,1,1,1,1,1,1,1"
dtnsim.node[13].app.start = "2,16,17,1,16,12,13,3,2,19,13,15,2,3,4,7,7,14,15,13,15,1,2,9,14,20,4,6,10,14,1,11,18,3,12,12,11,12,3,19,4,16,13,7,8,7,9,7,18,3,17,13,8,3,14,19,4,8,7,17,15,2,20,11,15,8,17,16,5,2,5,6,12,16,9,11,4,18,8,14,10,14,11,11,10,12,18,19,20,14,9,17,19,13,16,7,20,1,13,15"
dtnsim.node[13].app.destinationEid = "309,7,196,111,261,315,38,260,193,336,187,322,127,192,280,198,71,233,28,283,35,77,278,30,90,18,48,284,350,26,332,345,186,223,159,58,26,80,46,10,286,32,341,265,252,54,94,28,166,103,287,102,282,119,234,53,185,144,146,257,19,111,183,145,120,124,152,79,124,56,200,4,115,350,194,320,130,357,199,38,178,276,119,268,279,101,54,248,91,74,234,270,203,321,194,186,171,235,301,65"
dtnsim.node[13].app.size = "500,200,50,50,200,500,100,50,100,100,50,500,100,500,500,50,500,100,500,500,500,200,500,50,500,100,200,200,50,500,200,100,200,100,100,50,100,50,200,100,100,500,200,100,500,100,100,200,500,100,500,50,500,100,200,100,100,500,50,500,500,500,500,200,50,500,200,50,100,50,500,50,200,500,200,100,500,100,200,200,500,200,200,50,100,500,500,200,200,50,500,500,50,200,200,200,100,100,100,100"
        # Node 14 random traffic
dtnsim.node[14].app.enable = true
dtnsim.node[14].app.bundlesNumber = "1,1,1,1,1,1,1,1,1,1,1,1,1,1,1,1,1,1,1,1,1,1,1,1,1,1,1,1,1,1,1,1,1,1,1,1,1,1,1,1,1,1,1,1,1,1,1,1,1,1,1,1,1,1,1,1,1,1,1,1,1,1,1,1,1,1,1,1,1,1,1,1,1,1,1,1,1,1,1,1,1,1,1,1,1,1,1,1,1,1,1,1,1,1,1,1,1,1,1,1"
dtnsim.node[14].app.start = "20,12,12,13,13,20,19,3,1,2,18,14,8,18,4,1,12,9,16,11,8,3,19,17,8,6,6,14,17,14,12,18,18,6,5,20,18,2,19,4,12,19,13,3,4,10,17,15,2,18,14,19,18,19,18,5,14,1,3,11,10,13,2,18,17,7,19,12,18,6,6,3,20,13,17,5,9,15,19,4,2,9,10,13,6,2,13,18,9,19,7,12,7,16,5,19,13,9,16,6"
dtnsim.node[14].app.destinationEid = "316,97,43,48,69,32,138,305,255,186,109,360,303,30,277,230,148,30,98,306,87,39,154,142,205,256,119,183,278,292,228,16,224,320,11,139,310,225,60,184,170,13,231,273,132,119,44,138,101,108,297,231,35,296,109,325,174,5,303,122,111,156,167,311,244,208,83,40,74,227,82,231,355,34,75,121,240,146,158,323,34,48,125,183,93,13,3,123,236,53,137,227,285,174,172,30,142,307,271,76"
dtnsim.node[14].app.size = "50,500,50,50,50,200,500,100,50,200,500,200,100,500,50,100,100,200,500,100,200,500,50,50,200,500,200,100,100,200,500,500,100,100,200,200,100,100,500,200,50,100,50,100,500,500,50,200,50,100,100,50,200,200,200,200,50,100,100,50,100,100,200,100,100,100,500,100,200,50,50,50,50,500,200,50,50,50,200,500,100,500,500,100,200,50,200,500,200,500,100,50,200,200,100,50,50,500,500,50"
        # Node 15 random traffic
dtnsim.node[15].app.enable = true
dtnsim.node[15].app.bundlesNumber = "1,1,1,1,1,1,1,1,1,1,1,1,1,1,1,1,1,1,1,1,1,1,1,1,1,1,1,1,1,1,1,1,1,1,1,1,1,1,1,1,1,1,1,1,1,1,1,1,1,1,1,1,1,1,1,1,1,1,1,1,1,1,1,1,1,1,1,1,1,1,1,1,1,1,1,1,1,1,1,1,1,1,1,1,1,1,1,1,1,1,1,1,1,1,1,1,1,1,1,1"
dtnsim.node[15].app.start = "2,4,11,9,12,13,19,16,17,14,20,15,18,12,16,8,3,4,9,6,13,18,12,17,8,20,17,16,17,13,14,5,18,8,6,16,5,10,19,5,14,12,4,7,8,4,19,14,11,11,5,7,5,5,11,13,6,16,8,9,2,20,17,11,19,6,3,11,9,20,11,17,5,14,13,12,15,13,16,8,19,5,19,13,1,2,8,17,8,13,13,1,10,12,10,14,20,6,7,5"
dtnsim.node[15].app.destinationEid = "201,170,39,351,354,87,125,121,191,203,309,69,29,79,344,109,105,263,278,138,318,329,297,107,33,48,199,232,124,18,56,328,188,56,224,231,156,157,277,105,289,320,278,8,160,236,76,149,138,30,299,355,129,199,321,292,96,259,332,224,69,352,281,126,283,169,217,11,76,275,14,348,196,51,327,101,133,89,230,245,257,239,353,169,44,329,100,111,2,354,72,138,272,358,18,57,218,47,221,326"
dtnsim.node[15].app.size = "100,50,500,200,50,100,50,500,50,50,50,50,50,50,100,50,50,100,200,100,500,200,100,500,100,50,500,200,200,500,500,50,200,50,500,100,200,200,100,500,50,100,500,500,500,500,200,200,50,100,50,100,500,200,200,100,50,200,50,100,100,100,500,100,500,500,100,100,200,50,500,500,500,50,100,500,100,500,200,200,100,50,50,100,50,100,50,200,500,500,100,50,100,100,50,100,500,500,500,50"
        # Node 16 random traffic
dtnsim.node[16].app.enable = true
dtnsim.node[16].app.bundlesNumber = "1,1,1,1,1,1,1,1,1,1,1,1,1,1,1,1,1,1,1,1,1,1,1,1,1,1,1,1,1,1,1,1,1,1,1,1,1,1,1,1,1,1,1,1,1,1,1,1,1,1,1,1,1,1,1,1,1,1,1,1,1,1,1,1,1,1,1,1,1,1,1,1,1,1,1,1,1,1,1,1,1,1,1,1,1,1,1,1,1,1,1,1,1,1,1,1,1,1,1,1"
dtnsim.node[16].app.start = "10,19,3,16,20,9,15,10,16,1,18,11,9,5,20,6,11,12,5,4,6,8,13,17,9,4,17,9,12,7,10,12,3,11,15,4,2,1,15,19,1,10,13,7,12,7,15,3,9,8,7,6,20,1,19,18,8,4,4,15,10,13,5,19,18,13,7,4,9,3,3,19,15,16,16,10,9,7,1,8,13,8,6,1,7,6,12,15,12,20,9,2,11,20,17,19,20,11,15,13"
dtnsim.node[16].app.destinationEid = "191,34,152,252,7,171,118,244,170,343,296,138,276,171,135,200,268,335,156,331,349,75,141,158,89,11,164,100,26,10,5,94,223,84,109,274,197,279,98,208,71,113,84,54,6,159,286,300,183,121,214,11,28,154,171,278,41,215,211,173,83,338,34,196,157,33,40,74,143,64,145,121,145,291,315,154,184,23,165,313,122,91,309,111,209,317,176,231,222,11,212,309,264,335,308,267,206,117,265,52"
dtnsim.node[16].app.size = "100,200,200,500,50,100,500,500,50,500,50,500,50,50,50,500,100,200,50,100,200,50,500,500,100,50,200,200,500,100,50,500,200,500,50,200,100,100,500,50,50,50,500,100,50,100,100,50,200,50,200,500,100,100,200,500,50,500,50,50,50,500,500,500,100,200,100,500,50,500,50,500,500,100,100,200,200,100,50,100,50,50,200,50,50,50,50,50,50,50,500,50,500,500,50,100,500,100,100,500"
        # Node 17 random traffic
dtnsim.node[17].app.enable = true
dtnsim.node[17].app.bundlesNumber = "1,1,1,1,1,1,1,1,1,1,1,1,1,1,1,1,1,1,1,1,1,1,1,1,1,1,1,1,1,1,1,1,1,1,1,1,1,1,1,1,1,1,1,1,1,1,1,1,1,1,1,1,1,1,1,1,1,1,1,1,1,1,1,1,1,1,1,1,1,1,1,1,1,1,1,1,1,1,1,1,1,1,1,1,1,1,1,1,1,1,1,1,1,1,1,1,1,1,1,1"
dtnsim.node[17].app.start = "2,15,19,12,3,11,2,18,4,20,5,18,4,18,18,16,10,7,2,8,10,6,19,9,8,5,2,2,18,8,18,16,10,20,19,16,5,18,7,11,16,9,15,17,20,10,12,19,17,12,20,17,9,1,16,6,18,20,16,7,9,8,4,2,4,2,5,6,16,10,18,17,20,6,20,7,2,2,12,14,6,2,4,10,15,7,15,16,15,8,10,7,11,15,10,11,7,16,10,3"
dtnsim.node[17].app.destinationEid = "290,98,192,46,324,352,3,95,74,58,219,281,132,190,222,136,39,70,65,205,195,66,107,161,119,207,315,4,118,135,237,187,15,27,113,3,342,334,185,66,251,207,160,171,56,334,194,118,283,104,319,250,180,179,202,257,337,250,106,170,20,134,352,10,283,78,27,224,316,278,86,161,280,250,72,340,215,158,161,230,52,181,291,272,344,258,265,112,239,60,144,162,348,79,311,216,309,293,204,288"
dtnsim.node[17].app.size = "100,500,50,200,100,100,50,50,50,100,200,200,100,100,200,100,500,500,50,200,500,500,200,200,50,500,50,500,100,200,100,500,50,50,100,500,500,50,200,500,100,500,100,500,200,100,500,50,200,200,100,500,100,200,500,500,50,200,200,50,200,500,200,500,100,200,50,100,500,200,200,50,100,100,100,200,200,200,100,200,100,500,200,100,50,500,500,500,500,50,50,500,200,100,50,50,100,50,50,100"
        # Node 18 random traffic
dtnsim.node[18].app.enable = true
dtnsim.node[18].app.bundlesNumber = "1,1,1,1,1,1,1,1,1,1,1,1,1,1,1,1,1,1,1,1,1,1,1,1,1,1,1,1,1,1,1,1,1,1,1,1,1,1,1,1,1,1,1,1,1,1,1,1,1,1,1,1,1,1,1,1,1,1,1,1,1,1,1,1,1,1,1,1,1,1,1,1,1,1,1,1,1,1,1,1,1,1,1,1,1,1,1,1,1,1,1,1,1,1,1,1,1,1,1,1"
dtnsim.node[18].app.start = "1,20,10,14,10,4,6,14,7,12,15,17,10,17,17,14,14,12,6,15,11,5,4,11,2,3,14,8,16,3,7,14,20,5,12,10,4,4,1,9,17,6,11,6,14,9,20,19,1,11,8,4,9,13,19,15,5,18,15,18,3,5,13,1,2,17,7,15,11,13,18,8,12,5,9,11,18,1,5,19,17,15,13,2,7,10,19,16,20,14,3,11,6,4,7,10,3,14,15,15"
dtnsim.node[18].app.destinationEid = "168,345,317,149,292,9,78,77,86,340,272,232,350,209,120,106,274,220,290,113,60,95,119,222,177,268,296,78,228,36,183,287,133,291,315,353,41,179,186,357,27,74,205,72,160,45,278,116,288,337,213,328,191,228,297,227,45,264,29,168,112,225,317,269,116,300,264,265,311,168,269,46,21,24,146,291,189,210,285,234,182,137,177,150,272,351,339,318,273,163,216,21,11,183,66,254,139,323,238,288"
dtnsim.node[18].app.size = "50,100,500,200,200,100,200,50,200,500,500,100,200,100,500,50,50,500,500,200,500,500,500,100,200,100,50,500,200,100,100,50,50,100,200,200,500,500,200,50,50,500,100,50,50,50,50,200,100,100,100,200,100,200,50,200,500,500,200,50,50,500,50,100,500,500,100,500,100,100,50,50,100,100,100,100,500,200,100,50,200,200,100,200,500,50,200,500,200,50,200,50,50,100,50,100,200,100,100,200"
        # Node 19 random traffic
dtnsim.node[19].app.enable = true
dtnsim.node[19].app.bundlesNumber = "1,1,1,1,1,1,1,1,1,1,1,1,1,1,1,1,1,1,1,1,1,1,1,1,1,1,1,1,1,1,1,1,1,1,1,1,1,1,1,1,1,1,1,1,1,1,1,1,1,1,1,1,1,1,1,1,1,1,1,1,1,1,1,1,1,1,1,1,1,1,1,1,1,1,1,1,1,1,1,1,1,1,1,1,1,1,1,1,1,1,1,1,1,1,1,1,1,1,1,1"
dtnsim.node[19].app.start = "8,18,20,8,11,5,11,12,3,11,1,6,13,3,6,19,9,7,14,2,14,5,10,16,3,16,13,16,1,8,20,8,11,3,19,16,7,9,20,6,7,6,10,15,9,1,1,4,14,11,16,13,19,8,16,11,7,11,20,9,13,3,1,10,14,12,16,6,19,10,15,3,5,5,18,2,11,7,19,7,10,19,14,17,2,20,10,1,14,10,18,14,14,7,17,10,20,6,10,4"
dtnsim.node[19].app.destinationEid = "43,16,360,35,148,16,269,147,284,165,86,165,62,294,229,261,157,115,225,134,164,86,83,357,271,285,224,354,143,140,354,357,36,186,86,73,316,253,135,34,312,91,48,349,346,207,318,190,157,214,357,36,43,3,78,184,294,80,348,32,33,25,3,147,65,2,124,181,25,44,251,15,306,220,99,147,237,166,270,229,10,272,225,203,106,262,162,295,156,327,127,54,314,272,144,260,352,267,36,218"
dtnsim.node[19].app.size = "100,100,50,100,50,100,50,100,500,100,100,500,200,500,100,500,200,100,50,100,200,500,500,100,500,500,500,500,100,100,500,100,200,50,100,200,50,500,50,200,200,200,100,200,200,500,100,100,100,100,50,200,200,200,100,500,50,50,100,500,500,100,200,200,500,50,500,200,500,100,200,200,50,100,50,50,100,500,200,50,100,50,500,50,50,500,500,50,200,500,500,50,500,100,200,500,500,200,50,50"
        # Node 20 random traffic
dtnsim.node[20].app.enable = true
dtnsim.node[20].app.bundlesNumber = "1,1,1,1,1,1,1,1,1,1,1,1,1,1,1,1,1,1,1,1,1,1,1,1,1,1,1,1,1,1,1,1,1,1,1,1,1,1,1,1,1,1,1,1,1,1,1,1,1,1,1,1,1,1,1,1,1,1,1,1,1,1,1,1,1,1,1,1,1,1,1,1,1,1,1,1,1,1,1,1,1,1,1,1,1,1,1,1,1,1,1,1,1,1,1,1,1,1,1,1"
dtnsim.node[20].app.start = "9,8,16,15,15,2,6,8,6,12,10,1,15,9,1,2,18,8,15,6,18,14,14,17,8,6,7,18,13,7,16,15,5,11,14,16,19,19,18,5,14,1,12,15,2,7,9,1,15,7,4,16,12,4,20,19,12,3,1,14,1,19,2,15,6,13,13,20,20,9,18,10,20,2,11,10,9,6,11,3,2,1,2,11,12,7,3,10,12,6,5,2,18,15,5,12,20,2,3,10"
dtnsim.node[20].app.destinationEid = "165,218,284,172,106,122,253,285,34,270,165,256,146,224,354,227,119,45,235,98,170,294,182,271,288,301,135,32,98,175,299,222,84,307,343,313,276,279,245,229,220,239,354,344,335,110,357,101,147,336,320,323,141,29,170,330,210,288,207,83,117,280,248,290,78,30,148,135,66,204,50,266,55,181,196,30,324,346,269,250,51,247,183,82,146,320,305,276,108,31,177,207,149,81,254,33,236,193,309,184"
dtnsim.node[20].app.size = "200,500,500,50,200,200,100,50,200,50,100,100,200,100,100,500,50,200,100,100,100,100,500,50,100,50,50,50,200,500,500,200,50,50,100,200,50,100,100,100,100,50,500,100,500,200,200,500,200,500,200,200,100,200,50,50,100,200,500,100,100,50,500,500,200,100,200,500,100,500,50,500,100,100,100,500,500,50,50,200,50,50,50,200,100,50,50,500,200,100,50,100,500,200,100,500,50,500,500,100"
        # Node 21 random traffic
dtnsim.node[21].app.enable = true
dtnsim.node[21].app.bundlesNumber = "1,1,1,1,1,1,1,1,1,1,1,1,1,1,1,1,1,1,1,1,1,1,1,1,1,1,1,1,1,1,1,1,1,1,1,1,1,1,1,1,1,1,1,1,1,1,1,1,1,1,1,1,1,1,1,1,1,1,1,1,1,1,1,1,1,1,1,1,1,1,1,1,1,1,1,1,1,1,1,1,1,1,1,1,1,1,1,1,1,1,1,1,1,1,1,1,1,1,1,1"
dtnsim.node[21].app.start = "19,9,8,7,4,17,5,18,11,3,9,2,8,3,2,7,13,18,16,17,17,2,10,10,4,11,9,9,14,13,7,6,17,9,9,7,5,11,20,6,3,6,19,3,15,3,12,16,15,14,5,19,12,18,2,20,8,10,1,8,19,11,16,8,4,9,12,7,13,2,3,7,14,10,2,4,12,17,19,3,17,11,9,14,10,9,20,13,4,9,2,7,2,8,10,8,3,17,4,15"
dtnsim.node[21].app.destinationEid = "338,9,69,316,244,343,199,77,142,248,117,226,50,304,171,259,33,143,322,175,351,24,155,210,203,244,206,214,57,263,305,167,135,243,76,42,86,57,297,162,86,331,144,141,160,276,109,124,45,133,12,28,96,303,77,6,150,152,199,128,12,71,294,228,146,342,58,314,244,299,22,35,247,236,258,30,301,281,197,7,263,154,119,316,164,300,37,197,13,241,148,61,250,281,106,192,93,315,227,224"