[General]
network = src.dtnsim										
repeat = 1
allow-object-stealing-on-deletion = true

# Simulation end time
sim-time-limit = 84600s

# Nodes quantity (identifiers (EiDs) matches their index, EiD=0 is ignored)			
dtnsim.nodesNumber = 120
dtnsim.node[*].icon = "satellite"

# Nodes's failure rates
dtnsim.node[*].fault.enable = false
dtnsim.node[*].fault.meanTTF = 0s
dtnsim.node[*].fault.meanTTR = 0s

# Mobility
dtnsim.node[*].hasMobility = true
dtnsim.node[*].norad.satIndex = parentIndex()
dtnsim.node[*].norad.satName = "sat"
**.updateInterval = 20s
**.numOfSats = 120
**.satPerPlane = 10
**.altitude = 540
**.planes = 12
**.phaseOffset = 7

dtnsim.node[*].dtn.routing = "antop"
dtnsim.node[*].dtn.printRoutingDebug = true

# --- Random Traffic Configuration ---
# Node 1 random traffic
    dtnsim.node[1].app.enable = true
    dtnsim.node[1].app.bundlesNumber = "11,33,42,3,40,27,22,3,35,14,18,9,39,45,19,4,33,46,24,40,1,17,30,25,18,14,21,8,47,49,17,35,4,36,44,22,31,24,14,40,39,2,16,38,9,5,32,24,28,49,48,10,8,31,19,34,44,27,33,3,26,49,19,29,23,25,31,29,40,48,26,40,50,5,17,5,6,31,14,38,46,16,31,31,30,18,33,31,21,8,29,28,47,25,8,22,22,28,34,27"
    dtnsim.node[1].app.start = "96,83,31,87,90,7,21,78,59,55,10,65,42,21,46,41,80,10,97,99,55,79,49,99,20,81,31,52,11,5,83,78,64,41,67,6,36,34,34,78,17,70,88,28,60,10,32,17,38,89,80,32,41,38,58,86,35,38,44,62,64,17,8,17,15,98,41,12,13,41,14,26,46,64,17,75,50,98,48,99,68,65,40,78,16,22,85,46,51,61,49,28,74,53,74,68,59,38,98,60"
    dtnsim.node[1].app.destinationEid = "45,105,87,120,69,100,26,108,54,37,87,40,105,26,40,117,65,21,36,17,67,63,4,49,28,103,120,107,102,32,42,90,35,69,36,82,62,107,87,79,44,82,5,3,80,117,120,12,9,97,60,104,51,83,69,111,35,30,107,41,71,71,56,34,87,57,99,57,115,44,71,84,23,70,42,18,13,75,10,103,54,52,24,19,99,56,114,34,42,92,32,118,94,7,43,110,66,109,36,73"
    dtnsim.node[1].app.size = "200,100,100,500,50,500,500,500,100,100,200,100,50,100,50,200,200,50,500,100,100,200,50,200,200,500,500,200,100,200,200,50,100,200,500,500,500,500,50,200,200,200,500,500,500,500,100,50,50,500,500,50,50,50,500,50,200,200,100,100,200,200,100,50,50,50,500,500,200,500,200,100,100,500,500,500,500,100,50,100,200,100,50,200,500,500,100,100,200,100,50,100,100,50,200,200,200,200,200,200"
            # Node 2 random traffic
    dtnsim.node[2].app.enable = true
    dtnsim.node[2].app.bundlesNumber = "23,36,46,41,50,8,1,41,12,23,15,6,17,49,4,17,45,23,16,3,6,34,27,16,36,35,32,28,48,9,1,46,37,1,31,25,7,5,30,19,35,9,12,43,19,38,15,40,32,12,7,2,29,7,10,30,46,9,25,28,40,9,41,34,50,43,3,27,47,29,5,24,16,4,33,41,19,20,36,4,18,39,35,37,14,12,2,40,12,39,22,12,42,41,21,38,9,14,45,34"
    dtnsim.node[2].app.start = "59,2,31,25,95,64,98,9,55,96,44,37,5,45,47,42,17,91,10,37,60,74,100,57,35,72,50,91,54,19,88,37,46,75,92,86,65,47,54,86,26,46,10,16,64,93,93,62,15,39,60,40,68,63,84,74,71,12,74,14,90,50,44,74,79,76,88,68,9,49,56,31,70,59,75,25,81,93,80,58,28,10,29,40,19,12,66,65,36,64,99,59,62,66,44,16,18,73,76,39"
    dtnsim.node[2].app.destinationEid = "94,63,115,63,57,97,35,7,35,72,117,16,33,115,27,54,87,97,48,33,98,24,111,19,7,71,60,65,66,74,117,81,43,76,33,103,90,90,50,82,47,22,93,113,11,98,105,51,6,19,31,85,40,75,99,47,75,57,79,18,10,113,34,91,43,43,66,64,104,48,84,119,76,4,52,85,91,25,9,14,34,21,89,112,54,11,86,13,93,29,6,88,43,59,81,17,65,67,28,65"
    dtnsim.node[2].app.size = "100,500,500,50,50,50,500,100,50,500,50,100,500,200,200,100,200,50,100,500,500,100,200,50,50,500,100,200,500,100,50,100,200,50,200,200,50,200,50,100,200,200,200,200,50,50,50,500,200,50,500,50,100,200,100,200,100,50,200,200,500,50,500,500,500,50,500,200,50,50,500,100,500,500,100,200,50,50,500,500,200,200,500,100,100,100,50,500,500,100,500,50,50,200,200,100,50,500,100,100"
            # Node 3 random traffic
    dtnsim.node[3].app.enable = true
    dtnsim.node[3].app.bundlesNumber = "48,34,29,33,3,29,36,16,16,27,29,19,35,6,8,19,11,35,17,12,30,49,31,44,19,22,45,18,16,46,15,31,21,28,3,14,35,33,31,26,10,6,18,34,38,22,15,28,31,47,22,7,49,1,5,37,10,46,23,44,19,7,20,21,48,32,5,36,13,14,46,20,39,22,41,37,49,41,39,5,40,41,13,5,5,36,30,8,39,19,22,4,12,46,29,39,46,18,39,47"
    dtnsim.node[3].app.start = "6,93,62,96,63,27,1,33,84,96,23,34,23,84,35,16,66,32,3,78,67,59,13,19,54,94,85,72,37,14,14,30,88,15,31,59,50,70,83,3,82,5,71,41,5,73,91,14,49,60,12,53,28,37,17,93,65,1,85,92,64,96,12,16,12,75,39,67,5,76,49,61,83,9,29,82,79,49,48,56,27,84,66,94,24,46,55,16,15,69,62,68,17,10,85,28,99,16,83,5"
    dtnsim.node[3].app.destinationEid = "74,12,87,109,51,14,77,72,26,114,103,76,15,4,24,60,10,62,60,119,111,75,78,20,51,103,53,102,42,98,118,22,5,17,46,13,18,7,67,95,111,39,1,83,15,33,6,89,30,88,49,28,58,95,28,25,36,111,28,64,116,78,75,42,32,82,54,58,41,49,53,113,97,42,89,77,13,59,37,120,110,78,92,33,55,74,83,22,30,39,73,20,14,116,56,22,7,113,91,116"
    dtnsim.node[3].app.size = "200,200,200,100,100,500,200,500,50,50,500,500,200,100,100,200,50,100,100,200,200,500,100,50,50,50,200,500,200,500,100,100,100,500,200,50,50,200,200,50,500,500,200,200,50,500,500,100,200,500,100,50,200,200,500,50,500,500,200,500,200,50,200,200,100,100,200,50,50,500,100,500,200,200,200,100,200,200,100,200,500,100,100,200,500,50,200,50,100,50,200,500,100,500,200,100,200,100,50,100"
            # Node 4 random traffic
    dtnsim.node[4].app.enable = true
    dtnsim.node[4].app.bundlesNumber = "39,37,38,1,40,34,46,33,9,33,18,37,31,29,12,22,48,13,37,16,46,8,19,18,13,15,40,44,16,46,14,7,25,40,8,17,48,26,30,26,35,28,12,11,43,33,50,28,17,6,44,37,8,22,40,49,31,17,34,9,19,10,8,5,22,30,49,40,27,7,29,9,26,10,41,14,23,31,19,21,12,49,12,3,41,25,40,18,35,29,28,13,30,3,47,39,38,43,47,17"
    dtnsim.node[4].app.start = "20,72,61,81,16,20,89,51,19,80,35,4,40,31,10,98,5,2,71,12,7,5,95,13,82,47,99,72,4,52,46,91,20,74,83,3,49,77,58,17,38,50,13,100,62,81,34,19,46,36,89,57,25,39,3,49,62,79,9,89,61,71,80,13,61,94,55,93,21,1,77,88,15,11,22,51,2,69,40,59,25,64,75,13,56,60,28,20,27,23,3,85,27,29,36,23,59,1,18,100"
    dtnsim.node[4].app.destinationEid = "14,42,44,66,55,6,22,3,10,1,17,61,108,10,21,7,57,116,18,86,32,15,70,77,74,12,83,43,50,78,23,69,13,26,47,27,108,47,97,109,65,12,17,41,111,97,37,2,47,19,112,18,65,95,68,70,114,97,114,107,64,109,49,115,5,66,54,107,13,58,86,66,110,45,50,65,114,75,118,111,3,34,51,81,28,62,117,20,74,73,116,90,119,87,22,72,52,18,20,3"
    dtnsim.node[4].app.size = "500,50,50,500,50,200,50,100,100,100,50,500,500,200,100,200,50,200,100,200,100,500,500,200,50,50,500,500,500,200,500,50,200,500,100,500,500,50,50,200,200,50,50,200,50,100,100,200,100,50,100,50,50,200,200,200,100,500,100,200,200,100,50,200,50,50,50,500,50,500,100,100,200,100,50,50,200,50,200,100,50,500,200,50,50,50,100,50,500,200,500,200,100,50,100,100,200,100,200,50"
            # Node 5 random traffic
    dtnsim.node[5].app.enable = true
    dtnsim.node[5].app.bundlesNumber = "40,46,1,24,1,28,19,25,24,46,18,7,27,50,45,29,32,1,9,27,1,8,32,5,13,35,35,47,39,7,38,20,31,31,20,27,24,43,9,23,20,47,42,15,10,6,5,35,3,46,18,20,19,31,50,22,48,10,36,50,26,15,48,29,22,4,1,35,26,12,38,38,18,44,26,24,2,28,12,3,48,3,35,8,45,34,39,5,34,32,1,10,4,21,40,49,37,12,1,34"
    dtnsim.node[5].app.start = "95,22,81,5,56,19,59,22,84,40,100,12,71,87,49,19,59,63,56,10,15,41,21,69,39,39,69,75,7,91,10,41,68,44,72,83,23,45,97,41,29,85,91,89,54,18,79,44,36,14,70,21,51,24,2,90,42,18,20,43,11,25,98,9,94,26,11,57,18,56,77,49,6,61,32,69,10,59,88,90,65,26,22,5,37,43,71,74,41,83,96,6,7,63,87,23,77,69,16,87"
    dtnsim.node[5].app.destinationEid = "105,113,7,98,118,52,16,66,64,14,61,19,90,13,64,9,34,24,109,56,87,82,15,39,99,70,1,111,84,16,51,60,32,82,91,25,59,31,54,1,69,19,119,120,115,32,73,46,58,34,33,2,27,41,95,73,106,22,94,67,87,11,46,72,66,105,81,18,86,64,38,96,24,48,43,65,105,111,91,68,113,78,9,90,103,3,120,53,99,76,72,6,13,101,114,84,69,2,25,82"
    dtnsim.node[5].app.size = "500,500,500,100,500,100,500,200,500,100,200,500,200,500,100,500,500,100,200,200,200,500,200,50,500,200,50,200,100,50,100,50,500,200,100,100,500,500,50,200,200,500,50,50,100,200,100,50,100,100,50,200,100,100,100,200,100,500,100,500,500,500,200,200,100,100,100,50,200,500,500,500,100,100,100,500,200,100,100,100,50,500,100,500,50,100,100,100,50,50,50,50,50,100,100,50,200,500,200,100"
            # Node 6 random traffic
    dtnsim.node[6].app.enable = true
    dtnsim.node[6].app.bundlesNumber = "2,9,34,20,38,8,48,18,29,5,2,1,26,39,33,44,5,2,25,22,23,31,29,10,12,36,42,48,16,40,37,50,11,9,28,46,28,11,30,14,2,27,45,1,18,5,1,13,20,46,17,6,30,37,46,20,23,49,48,34,20,27,23,26,41,9,48,12,45,33,15,5,34,26,15,12,47,6,24,43,15,1,40,25,13,26,25,21,47,46,1,46,42,14,21,32,9,47,47,44"
    dtnsim.node[6].app.start = "66,74,42,67,25,84,67,50,84,87,100,49,4,71,13,94,90,43,39,68,77,65,58,46,63,51,90,96,71,16,27,12,37,7,75,90,54,13,2,52,7,44,41,29,19,64,100,60,21,68,96,66,19,84,13,33,70,82,9,21,20,61,28,41,77,62,56,76,18,97,50,69,96,94,75,6,38,58,88,100,75,17,100,35,3,94,64,75,84,44,50,27,60,73,90,76,45,85,11,57"
    dtnsim.node[6].app.destinationEid = "111,62,109,64,89,45,61,35,96,113,77,117,11,101,2,78,64,50,4,81,23,72,22,116,95,95,69,118,18,88,62,93,8,81,118,19,97,32,5,37,103,109,81,90,57,110,32,47,33,119,109,46,70,39,87,5,93,4,13,98,76,83,105,32,91,36,15,110,108,27,37,13,80,64,35,26,113,46,62,92,83,55,25,36,114,62,7,18,69,90,45,63,89,35,41,9,59,24,94,63"
    dtnsim.node[6].app.size = "200,50,100,50,50,50,200,200,200,500,50,200,500,100,50,500,100,100,200,200,200,500,100,500,50,500,50,200,200,200,200,200,200,50,200,200,200,50,100,500,500,500,500,50,200,100,200,100,200,500,500,50,100,100,50,100,500,50,100,50,200,100,500,500,50,500,50,100,500,200,500,200,50,100,200,500,100,100,500,200,500,200,50,200,100,500,200,200,500,200,100,500,50,50,100,50,500,500,500,200"
            # Node 7 random traffic
    dtnsim.node[7].app.enable = true
    dtnsim.node[7].app.bundlesNumber = "2,29,38,3,25,26,24,21,15,40,31,2,28,13,24,8,24,27,28,13,7,47,27,4,16,40,36,47,50,49,2,13,10,26,7,36,2,1,15,10,30,9,18,5,42,38,27,8,34,28,45,27,8,40,24,42,35,47,19,36,25,35,21,27,22,43,10,17,8,50,41,35,33,50,3,15,9,36,15,12,30,38,36,21,4,45,49,16,3,41,41,37,41,25,1,18,22,32,50,18"
    dtnsim.node[7].app.start = "62,52,69,8,28,98,86,37,1,74,49,9,84,84,49,8,3,76,37,62,61,29,48,68,28,84,32,70,25,13,92,28,94,87,31,8,39,47,98,99,87,3,80,28,98,75,26,13,75,34,82,73,30,96,84,42,79,50,85,72,25,27,92,16,12,14,43,29,72,58,92,72,18,78,37,1,96,42,36,46,26,78,45,43,75,80,90,66,45,20,40,44,8,67,85,99,28,9,18,92"
    dtnsim.node[7].app.destinationEid = "78,15,14,34,96,51,28,105,71,117,42,65,54,58,120,72,35,108,120,24,120,108,50,87,76,19,77,2,2,41,24,105,14,109,113,70,105,115,113,55,74,115,99,112,30,114,28,44,107,84,21,65,35,78,55,46,111,3,29,99,107,76,15,103,109,93,41,72,106,115,39,57,68,41,42,11,105,94,86,20,72,46,103,48,64,100,116,54,92,114,43,56,117,27,37,64,67,104,8,120"
    dtnsim.node[7].app.size = "500,100,50,100,50,100,500,50,200,500,500,200,200,100,50,500,500,200,50,50,200,100,500,200,500,200,50,500,50,200,100,500,50,500,100,50,50,100,50,100,50,500,500,100,200,500,500,50,200,500,100,50,50,100,500,500,50,50,200,200,100,50,500,50,200,50,200,50,500,500,100,200,50,100,500,100,500,100,500,50,100,500,100,50,200,100,50,200,100,50,100,100,100,100,100,50,50,50,200,100"
            # Node 8 random traffic
    dtnsim.node[8].app.enable = true
    dtnsim.node[8].app.bundlesNumber = "38,8,47,45,11,13,4,11,18,26,9,5,15,20,21,10,15,38,5,13,39,20,16,47,28,9,33,9,7,50,47,8,2,40,48,24,13,43,19,6,22,5,4,9,10,26,12,41,39,9,10,33,29,15,27,28,35,31,40,44,5,39,34,13,11,46,32,32,37,17,33,4,27,3,42,12,5,35,34,4,17,23,16,18,37,41,41,42,30,15,24,28,39,39,4,44,16,10,48,1"
    dtnsim.node[8].app.start = "39,63,74,44,11,92,64,77,73,45,63,54,43,31,8,22,49,19,66,11,63,55,94,78,65,77,28,34,100,30,63,35,40,84,54,35,95,80,63,28,18,62,33,95,15,75,21,7,76,74,29,28,53,68,69,50,75,91,48,90,82,67,67,50,5,55,85,26,14,4,6,76,73,47,81,90,19,26,66,90,74,36,33,61,60,80,22,31,56,75,3,30,95,56,32,46,32,41,100,45"
    dtnsim.node[8].app.destinationEid = "85,51,92,84,38,111,116,33,120,102,97,44,71,109,118,22,103,2,38,120,64,13,99,78,12,116,101,78,2,10,45,92,5,7,90,116,67,53,61,99,61,44,81,111,68,104,54,108,20,49,50,83,97,81,48,45,29,17,64,15,79,107,22,22,105,24,82,23,75,13,26,36,19,116,55,44,104,67,113,52,93,66,87,97,50,74,1,7,113,48,66,108,30,76,108,4,11,69,85,43"
    dtnsim.node[8].app.size = "100,200,500,500,50,50,100,200,100,200,200,50,50,50,500,200,100,100,200,500,50,200,500,50,100,200,100,500,100,200,50,50,500,500,100,500,200,100,200,500,100,500,50,100,200,50,100,500,200,200,500,50,200,500,100,500,200,50,100,50,200,100,100,500,200,500,500,100,200,500,500,100,200,500,100,50,500,50,50,500,200,50,100,200,50,200,50,500,50,100,100,100,500,50,500,50,50,500,50,200"
            # Node 9 random traffic
    dtnsim.node[9].app.enable = true
    dtnsim.node[9].app.bundlesNumber = "15,12,22,11,47,15,34,32,13,16,6,3,22,36,29,40,10,14,42,37,20,32,10,33,50,3,11,30,3,19,18,37,27,5,19,11,13,45,49,33,4,18,25,48,32,34,21,11,18,41,20,35,35,36,9,40,37,18,17,27,25,27,3,35,33,6,48,42,48,31,9,45,40,44,23,39,11,4,49,11,8,15,8,20,47,8,2,17,17,39,32,29,43,13,12,49,14,6,5,46"
    dtnsim.node[9].app.start = "18,24,85,74,16,74,22,99,55,5,46,82,29,15,61,92,21,2,80,84,82,37,63,58,56,68,63,48,67,52,47,71,85,51,23,98,57,15,65,17,44,27,96,88,25,13,56,48,88,81,33,85,37,76,15,80,68,70,65,57,32,18,51,79,39,29,63,51,55,71,71,68,22,68,35,100,11,92,52,20,62,40,38,34,35,30,13,81,76,2,82,34,86,79,16,92,23,21,25,85"
    dtnsim.node[9].app.destinationEid = "57,30,45,109,60,20,1,79,97,25,64,118,50,90,64,72,86,68,59,67,51,34,6,1,41,84,68,104,74,98,65,20,33,19,89,100,39,86,113,41,38,13,81,50,41,94,17,34,37,82,75,61,72,110,112,54,8,26,111,39,50,80,98,55,49,4,44,98,33,96,3,105,93,28,70,106,60,108,94,56,43,32,73,23,4,37,17,53,23,83,7,83,66,54,31,18,100,111,76,93"
    dtnsim.node[9].app.size = "200,100,100,50,500,100,100,100,200,200,50,500,200,50,200,200,200,50,500,500,500,200,200,500,200,500,500,100,200,500,500,500,100,200,200,200,50,50,200,50,200,500,50,50,50,200,100,500,50,100,100,500,50,100,500,200,500,100,200,50,50,200,100,100,200,100,100,200,100,50,500,500,100,50,200,200,100,50,100,100,500,200,500,200,200,100,200,200,50,500,50,500,50,100,50,200,200,50,50,50"
            # Node 10 random traffic
    dtnsim.node[10].app.enable = true
    dtnsim.node[10].app.bundlesNumber = "3,42,18,28,33,49,44,38,42,40,13,6,19,39,28,31,23,40,21,39,6,21,36,35,48,40,21,32,19,41,3,12,45,19,38,34,1,49,22,8,46,21,24,4,7,7,32,41,43,8,49,7,3,50,30,27,42,10,27,42,3,23,29,34,13,22,18,22,42,10,6,49,2,40,10,27,24,21,7,50,12,42,15,41,17,15,34,20,26,1,5,46,19,45,30,15,19,5,1,17"
    dtnsim.node[10].app.start = "54,31,47,22,87,21,1,61,26,89,27,49,52,69,51,79,54,62,54,95,38,15,25,32,99,72,67,59,68,4,94,37,71,7,76,77,50,90,96,79,38,88,41,77,49,20,19,29,7,17,47,79,56,83,10,14,51,70,79,15,7,31,3,24,58,100,92,86,20,50,74,68,26,80,89,52,88,24,75,77,16,14,84,99,88,37,56,62,19,94,81,45,99,88,56,44,75,97,46,12"
    dtnsim.node[10].app.destinationEid = "54,103,14,72,113,109,19,14,6,97,68,67,69,9,33,103,18,67,11,101,16,114,5,96,82,25,52,115,39,16,67,15,40,20,11,25,51,11,87,69,72,86,66,22,47,95,32,108,115,6,92,20,39,47,12,36,84,65,105,52,75,3,64,4,59,80,55,73,86,52,43,28,92,11,118,50,11,13,110,57,22,69,114,55,94,4,106,15,34,112,19,53,1,13,11,106,35,100,1,109"
    dtnsim.node[10].app.size = "200,50,50,500,50,50,100,200,50,200,200,100,50,50,200,500,200,200,500,100,500,100,100,100,100,500,100,500,100,500,50,500,50,50,200,100,50,500,200,50,50,100,500,200,100,500,200,50,200,500,50,100,200,50,50,50,100,50,100,50,100,50,500,50,100,50,100,500,200,200,50,50,100,50,200,50,500,50,200,200,200,100,500,500,500,500,500,100,500,50,50,100,100,500,100,500,100,500,200,200"
            # Node 11 random traffic
    dtnsim.node[11].app.enable = true
    dtnsim.node[11].app.bundlesNumber = "4,24,1,8,8,32,11,18,48,48,10,5,32,21,5,12,29,7,43,26,43,15,28,9,21,23,24,43,31,8,40,30,8,10,34,13,44,41,17,29,14,11,38,28,10,7,31,3,9,3,43,47,10,30,24,38,14,33,45,31,19,27,43,26,11,46,1,32,26,31,28,9,15,32,28,18,19,29,8,15,48,24,29,15,40,31,36,48,28,44,18,23,48,5,19,36,31,5,15,16"
    dtnsim.node[11].app.start = "27,86,12,84,76,41,8,52,41,53,16,100,51,39,95,4,34,99,27,65,22,78,7,42,21,66,62,31,15,11,48,84,34,23,16,49,7,39,52,54,32,85,9,34,13,3,65,28,6,38,28,63,42,9,23,16,28,57,57,74,98,9,37,43,75,36,65,67,71,96,73,16,76,80,52,36,27,44,96,13,88,67,35,92,57,28,60,99,59,3,42,32,64,6,71,92,41,93,58,20"
    dtnsim.node[11].app.destinationEid = "77,82,59,35,69,54,59,65,75,48,76,86,3,107,10,22,25,14,57,96,35,36,96,68,49,38,80,6,33,76,10,74,101,27,35,92,30,118,104,99,34,106,46,46,119,16,40,4,98,45,115,90,68,41,89,15,28,69,4,1,16,6,68,95,13,81,38,107,83,31,5,100,105,91,15,42,119,108,95,84,62,112,9,119,36,52,79,4,7,27,111,81,103,96,21,78,60,108,112,89"
    dtnsim.node[11].app.size = "100,100,50,500,100,100,100,100,50,50,500,500,100,500,50,500,50,200,200,200,100,50,200,200,100,100,50,500,50,50,100,500,100,200,500,500,200,50,100,100,50,100,500,100,50,50,50,200,500,500,200,200,50,100,50,50,50,200,50,500,50,200,500,500,200,100,500,100,100,200,100,200,200,100,200,100,500,500,200,50,50,100,200,100,50,500,50,100,100,100,500,200,100,100,500,100,200,100,100,200"
            # Node 12 random traffic
    dtnsim.node[12].app.enable = true
    dtnsim.node[12].app.bundlesNumber = "29,1,43,27,20,35,11,5,14,32,13,8,31,9,28,8,47,23,2,27,28,8,34,44,11,23,12,10,22,21,6,41,28,5,13,20,41,8,30,31,12,36,9,49,46,7,3,44,49,49,39,22,35,32,39,23,28,24,15,34,3,48,48,38,24,31,40,14,23,40,16,27,35,37,27,41,43,50,13,15,37,28,19,46,47,37,46,48,30,43,35,7,14,45,37,20,30,25,15,41"
    dtnsim.node[12].app.start = "15,8,5,25,80,21,16,9,84,24,64,9,42,16,30,90,41,60,46,4,36,49,9,62,1,77,85,11,24,68,95,8,20,61,96,42,64,75,16,29,91,78,86,52,26,12,21,35,44,93,13,80,5,58,91,32,21,62,57,81,84,72,67,71,57,65,73,21,48,5,54,44,59,67,18,26,18,81,41,19,47,85,74,67,57,5,73,52,1,1,22,78,52,38,57,76,51,81,28,5"
    dtnsim.node[12].app.destinationEid = "54,98,75,101,90,79,35,40,99,18,104,55,68,17,55,88,21,5,71,111,60,72,67,3,104,23,26,27,51,65,41,106,22,103,55,92,26,11,76,79,118,107,119,74,66,77,50,120,19,9,13,32,109,73,75,27,35,75,97,14,78,4,2,110,25,81,109,76,2,81,104,97,76,20,16,7,25,2,59,50,23,103,76,75,79,51,95,75,80,93,96,90,46,45,77,94,22,63,56,79"
    dtnsim.node[12].app.size = "200,100,500,200,200,50,500,500,200,500,100,200,200,50,100,500,100,100,500,50,200,100,200,500,50,50,200,100,200,100,50,500,50,50,500,50,100,50,200,50,200,200,50,200,50,100,200,500,100,50,200,200,500,100,50,200,100,500,100,200,500,100,100,500,50,200,200,200,50,100,100,500,100,50,50,200,100,200,50,50,100,200,50,200,100,500,500,100,100,50,50,200,200,100,500,50,50,100,200,500"
            # Node 13 random traffic
    dtnsim.node[13].app.enable = true
    dtnsim.node[13].app.bundlesNumber = "48,40,37,42,4,2,10,23,48,22,3,47,27,12,12,17,42,50,28,46,4,5,18,9,26,26,35,27,38,28,30,47,8,8,5,49,40,18,36,41,46,43,2,16,3,7,18,6,24,37,41,10,6,39,26,10,1,47,4,24,24,41,8,13,10,31,17,22,1,29,44,34,49,4,35,32,6,32,23,13,42,38,8,45,19,27,20,7,45,6,5,30,29,40,33,31,36,28,6,36"
    dtnsim.node[13].app.start = "18,68,39,41,50,97,49,41,90,22,81,34,89,84,58,71,45,80,13,30,42,71,50,21,19,71,8,14,38,53,50,68,86,94,51,4,91,87,87,54,9,8,64,71,11,81,21,98,36,62,75,87,18,56,78,31,91,26,93,62,92,94,89,88,31,5,94,65,19,23,23,62,14,7,84,69,45,25,10,56,15,90,62,28,8,86,30,58,51,33,42,24,59,95,46,89,75,3,85,75"
    dtnsim.node[13].app.destinationEid = "72,112,117,64,79,29,105,9,57,23,43,76,99,19,31,15,91,67,23,60,8,29,63,92,109,61,42,46,8,99,2,81,36,100,58,53,89,54,70,6,56,89,66,76,111,71,105,47,40,29,1,87,41,107,21,75,78,50,37,34,63,11,43,114,43,105,63,8,75,7,18,23,80,7,66,89,120,61,18,108,53,106,113,40,70,107,43,10,97,72,7,46,103,102,66,76,77,55,77,111"
    dtnsim.node[13].app.size = "50,500,100,200,50,200,200,500,500,50,500,500,50,200,500,100,50,200,100,500,200,500,500,200,200,50,50,500,200,500,100,200,100,500,100,200,200,50,100,500,100,200,200,200,500,100,200,50,500,200,50,50,500,50,500,200,50,500,100,500,100,500,100,500,100,100,100,500,500,50,50,500,200,100,50,50,500,200,200,50,500,100,100,200,200,200,50,500,50,100,200,200,200,50,200,200,50,500,500,50"
            # Node 14 random traffic
    dtnsim.node[14].app.enable = true
    dtnsim.node[14].app.bundlesNumber = "25,12,20,17,37,27,8,36,1,20,12,46,19,13,35,1,8,2,11,15,8,26,36,43,42,31,48,5,44,3,14,50,44,33,11,26,44,19,26,47,7,44,12,7,44,17,2,30,18,4,15,47,15,15,30,15,35,39,37,14,24,14,14,49,27,43,11,35,31,46,2,47,13,30,17,31,13,34,24,50,27,49,42,50,44,23,35,12,22,37,5,30,25,14,30,48,34,43,1,13"
    dtnsim.node[14].app.start = "18,15,76,53,13,88,87,26,95,20,47,50,31,54,17,54,41,37,43,45,25,55,19,91,90,25,32,39,8,12,94,56,24,22,90,17,36,17,34,33,43,71,44,22,81,28,9,67,84,66,95,81,10,96,91,47,73,98,35,15,77,69,59,41,1,36,40,78,100,98,48,2,88,27,3,29,17,38,84,98,64,72,94,2,96,35,15,5,47,49,61,98,5,4,45,50,92,15,26,83"
    dtnsim.node[14].app.destinationEid = "106,99,101,115,41,88,19,21,4,34,67,70,59,22,86,98,118,27,113,60,85,22,104,26,50,64,5,11,80,117,34,30,93,53,27,87,30,88,67,86,45,74,25,56,55,25,60,116,112,44,20,37,52,119,9,84,20,80,25,5,101,43,31,60,114,75,11,25,103,35,89,22,41,112,104,79,59,38,25,34,75,83,86,35,12,117,81,28,111,37,109,42,91,41,53,22,89,36,94,75"
    dtnsim.node[14].app.size = "500,200,50,200,500,500,200,50,500,50,200,100,50,500,200,50,200,100,100,50,200,100,200,100,100,500,200,200,500,500,50,500,100,500,50,200,500,50,100,50,50,200,500,200,100,50,200,50,200,50,500,200,500,100,50,100,50,50,500,100,200,100,50,500,200,100,50,500,100,500,500,200,100,100,200,100,200,200,100,200,100,100,200,500,100,50,50,500,200,500,200,500,100,500,500,200,200,50,100,100"
            # Node 15 random traffic
    dtnsim.node[15].app.enable = true
    dtnsim.node[15].app.bundlesNumber = "8,11,3,30,21,49,11,15,46,24,25,15,42,38,27,39,14,48,44,8,8,10,42,21,23,1,31,1,5,50,37,27,23,32,31,38,49,27,42,25,8,7,42,7,46,49,10,49,16,24,9,2,43,27,49,14,25,37,22,45,49,14,29,48,6,34,18,7,6,11,30,26,24,2,31,11,29,42,8,24,28,49,18,28,44,43,10,9,17,31,47,11,22,34,33,47,36,1,46,1"
    dtnsim.node[15].app.start = "43,32,65,92,58,91,54,25,56,4,11,39,4,42,74,7,41,10,35,93,99,82,72,11,62,95,92,35,27,64,86,65,81,43,23,78,4,46,26,40,96,48,49,42,44,39,33,16,61,96,81,14,68,23,62,18,89,51,5,48,41,95,11,83,24,18,36,18,26,5,66,16,59,95,85,76,37,26,47,4,52,2,100,62,94,33,41,5,83,34,88,27,19,61,26,54,14,60,52,43"
    dtnsim.node[15].app.destinationEid = "104,75,43,57,43,96,6,59,101,8,71,119,28,44,83,1,26,18,73,67,105,57,111,117,27,78,67,5,84,16,110,43,72,86,18,25,95,35,17,58,46,101,10,17,8,94,3,99,47,73,117,79,116,87,111,81,7,74,109,120,55,110,87,81,83,43,60,13,44,84,9,10,4,4,11,18,68,118,22,49,5,92,45,94,29,110,57,14,39,112,100,50,26,56,73,2,14,61,44,22"
    dtnsim.node[15].app.size = "500,100,500,200,50,200,100,50,500,500,50,50,100,100,100,100,50,500,500,200,50,50,50,100,500,100,500,200,200,50,50,50,500,200,500,200,200,100,100,200,100,100,500,500,500,500,200,100,50,100,200,50,50,100,50,500,50,100,500,500,50,50,200,200,200,500,100,50,100,200,100,200,100,50,100,500,500,500,100,200,500,500,200,200,200,500,500,50,500,100,50,500,50,200,200,50,500,200,200,100"
            # Node 16 random traffic
    dtnsim.node[16].app.enable = true
    dtnsim.node[16].app.bundlesNumber = "41,23,21,46,41,11,8,23,39,19,39,19,47,44,20,43,34,8,3,25,4,38,21,40,33,6,39,15,27,46,45,10,16,39,7,2,25,50,35,34,5,37,32,49,8,4,24,50,37,2,49,44,12,17,39,48,27,42,48,44,47,34,1,11,49,25,21,34,1,42,37,41,1,47,48,23,9,21,6,48,4,27,15,5,34,33,11,27,14,39,5,31,30,44,29,1,26,29,21,10"
    dtnsim.node[16].app.start = "68,15,23,1,41,92,94,77,60,12,89,41,92,53,93,13,91,76,78,86,69,96,30,99,84,79,48,94,65,72,76,75,29,15,81,91,45,61,61,22,99,99,14,85,20,100,44,32,71,72,38,62,96,88,99,96,15,17,83,93,65,84,5,63,48,96,85,95,48,100,59,63,16,89,75,33,74,78,55,41,60,32,45,55,11,91,94,73,68,4,19,80,26,64,94,53,32,61,99,84"
    dtnsim.node[16].app.destinationEid = "42,81,119,15,4,51,93,70,64,20,112,101,1,79,2,4,97,98,62,119,67,101,17,100,8,93,50,70,34,23,79,68,117,84,115,5,89,31,85,51,65,5,112,32,45,85,36,60,99,55,100,81,41,107,11,96,8,39,2,91,21,82,102,52,23,8,42,20,111,104,99,75,91,69,19,32,110,72,77,42,23,18,97,1,82,39,33,27,26,17,80,33,46,1,11,48,79,49,75,14"
    dtnsim.node[16].app.size = "200,200,50,100,200,200,50,500,50,100,500,200,100,200,50,100,50,200,200,50,200,50,500,200,200,100,200,100,200,200,100,200,50,100,500,50,100,50,200,500,100,500,500,500,100,500,500,200,200,500,500,500,200,50,500,100,100,50,200,100,50,100,100,50,500,500,200,200,200,500,200,200,100,200,100,50,200,200,200,50,200,200,200,200,500,100,200,100,100,50,500,100,50,100,500,100,50,50,500,500"
            # Node 17 random traffic
    dtnsim.node[17].app.enable = true
    dtnsim.node[17].app.bundlesNumber = "27,48,32,12,17,40,16,35,45,41,43,9,4,33,44,14,43,18,26,9,34,50,17,10,49,46,41,36,48,43,39,1,46,23,19,16,36,16,48,7,34,35,8,24,23,42,18,17,47,41,41,28,33,13,31,31,3,37,32,9,18,26,23,10,17,39,12,43,25,4,31,3,43,12,7,31,24,3,11,36,1,7,42,7,4,50,33,23,32,16,32,27,5,19,20,41,30,28,44,18"
    dtnsim.node[17].app.start = "72,34,40,61,20,71,74,66,53,24,28,5,45,35,74,34,15,63,75,5,35,95,65,42,78,37,68,89,30,94,36,61,68,64,12,19,94,95,83,83,46,37,4,12,78,92,50,98,70,70,81,48,10,3,8,85,7,64,91,51,82,83,51,60,90,88,55,88,69,48,48,47,87,80,32,99,18,73,32,11,16,73,51,23,65,43,42,51,43,82,91,52,60,18,91,19,93,85,72,60"
    dtnsim.node[17].app.destinationEid = "100,112,61,33,15,44,41,63,28,64,111,74,33,35,21,118,103,49,96,37,114,101,66,59,29,39,94,31,60,42,101,19,20,43,55,83,14,84,39,30,41,20,78,79,87,16,43,37,61,52,106,13,58,109,47,57,29,59,109,72,58,38,90,30,18,81,105,100,111,90,10,83,11,73,42,90,25,68,60,81,76,113,43,109,72,18,106,63,34,63,29,55,33,118,19,42,114,56,57,48"
    dtnsim.node[17].app.size = "500,100,50,500,50,50,200,100,100,500,500,200,100,50,50,50,50,500,100,200,500,50,500,50,50,200,50,50,200,100,50,100,200,100,50,100,200,500,200,100,50,200,100,500,100,100,100,500,100,200,100,100,200,50,200,100,100,50,50,500,100,100,200,200,50,200,200,500,500,50,200,50,100,50,100,50,500,50,100,100,100,50,50,500,50,200,50,100,50,50,500,100,200,100,50,50,500,500,50,500"
            # Node 18 random traffic
    dtnsim.node[18].app.enable = true
    dtnsim.node[18].app.bundlesNumber = "45,43,8,26,11,27,16,17,40,32,45,16,25,37,49,13,10,3,3,26,4,4,3,22,2,46,30,11,37,6,25,21,36,47,43,5,29,36,11,22,46,36,9,47,48,16,43,23,45,40,15,19,6,32,11,35,2,29,19,9,41,31,43,24,26,39,36,27,40,18,36,22,16,25,29,49,46,5,20,5,9,4,29,7,29,31,24,15,22,36,21,17,17,25,5,3,11,8,45,6"
    dtnsim.node[18].app.start = "31,65,6,16,70,28,50,20,28,51,93,36,12,15,15,65,62,86,66,96,89,55,96,52,15,43,94,96,99,17,19,7,79,33,90,53,37,27,27,44,66,20,4,81,71,16,94,95,34,42,71,67,65,43,75,95,67,41,85,57,54,12,40,90,77,68,81,47,20,54,33,18,96,6,87,59,3,89,52,9,10,42,61,25,26,16,87,60,81,77,20,32,48,13,92,2,95,62,78,89"
    dtnsim.node[18].app.destinationEid = "29,50,102,16,42,13,61,49,20,53,57,114,66,24,8,79,107,31,6,9,44,88,8,68,12,35,38,98,100,73,111,86,7,15,2,21,92,2,55,43,91,32,58,79,30,15,1,1,105,116,21,120,111,76,35,1,76,105,26,84,104,48,56,44,100,44,83,118,66,67,87,53,93,49,42,107,72,38,13,38,84,65,83,66,75,96,19,84,84,87,47,107,10,60,94,36,79,74,58,35"
    dtnsim.node[18].app.size = "500,500,200,200,50,500,500,50,50,100,500,500,100,200,500,100,50,50,50,500,50,50,200,200,500,50,200,50,50,50,100,100,200,50,50,50,100,50,500,50,500,100,200,500,100,50,500,50,500,500,500,100,200,200,500,200,200,50,100,50,50,500,500,500,100,200,500,500,100,100,500,200,50,50,50,100,50,50,100,500,500,200,50,200,500,100,200,50,200,100,500,200,100,50,100,100,200,200,50,200"
            # Node 19 random traffic
    dtnsim.node[19].app.enable = true
    dtnsim.node[19].app.bundlesNumber = "49,36,38,33,4,41,4,10,28,50,42,50,25,19,48,23,5,23,30,46,3,22,9,40,39,35,4,7,31,28,44,19,23,21,35,46,28,15,21,3,43,37,6,20,41,42,15,1,4,8,6,2,45,10,46,2,28,1,46,2,44,15,32,44,10,24,8,5,19,9,1,18,11,39,20,11,27,8,14,8,21,18,35,43,8,19,36,34,45,24,24,38,48,48,12,38,40,45,14,29"
    dtnsim.node[19].app.start = "16,35,49,63,19,89,33,59,100,7,89,29,50,34,92,36,11,51,92,93,86,7,26,76,96,77,80,95,64,25,67,77,6,64,41,3,53,36,98,10,39,52,40,64,42,50,9,71,38,58,86,2,18,29,82,35,17,25,34,1,17,62,8,26,81,48,49,59,25,57,83,79,65,13,33,13,26,49,8,52,48,37,27,39,95,26,14,100,47,43,89,14,77,53,68,19,50,95,53,89"
    dtnsim.node[19].app.destinationEid = "84,115,108,27,117,51,103,15,7,64,2,18,7,73,22,78,87,49,57,12,63,111,81,38,78,10,17,27,82,55,104,37,54,55,46,85,21,91,86,67,6,52,66,73,24,105,68,29,88,79,33,111,117,22,10,23,106,59,43,1,77,109,18,118,105,111,108,20,57,91,105,27,8,49,54,22,46,115,113,8,73,33,87,42,103,82,80,92,88,22,90,8,68,76,21,1,104,24,44,51"
    dtnsim.node[19].app.size = "200,100,100,500,500,200,500,200,200,100,200,50,500,100,500,200,500,100,200,200,500,50,100,200,50,500,100,50,500,50,50,500,50,500,200,500,200,500,500,100,50,50,200,500,50,200,50,100,200,100,100,200,50,200,500,50,100,100,200,200,50,500,100,100,100,50,500,200,100,50,200,200,200,50,200,50,100,50,200,50,100,50,50,50,50,100,100,200,50,200,50,100,500,200,50,500,200,50,100,200"
            # Node 20 random traffic
    dtnsim.node[20].app.enable = true
    dtnsim.node[20].app.bundlesNumber = "25,9,9,42,49,23,7,20,25,48,50,12,33,1,5,16,22,20,36,45,18,7,28,13,6,49,19,18,9,22,41,45,16,33,32,26,1,18,1,35,43,47,49,26,44,22,13,33,25,5,22,44,46,48,22,44,27,37,8,8,22,3,37,38,8,40,14,30,49,36,30,32,43,42,6,27,32,8,21,32,15,27,18,16,34,25,4,28,21,28,14,16,16,23,42,40,19,10,11,23"
    dtnsim.node[20].app.start = "29,13,64,60,89,100,11,85,83,41,90,93,12,9,8,18,37,85,45,26,2,77,48,4,75,87,99,94,51,57,5,100,8,23,37,67,8,4,26,10,34,74,14,38,91,63,70,15,73,10,82,52,4,12,34,78,36,54,93,68,10,58,91,31,52,31,10,33,14,87,71,34,21,82,25,42,30,90,81,58,87,12,27,65,31,70,69,25,92,56,14,26,12,80,69,13,77,80,79,17"