[General]
network = src.dtnsim										
repeat = 1
allow-object-stealing-on-deletion = true

# Simulation end time
sim-time-limit = 84600s

# Nodes quantity (identifiers (EiDs) matches their index, EiD=0 is ignored)			
dtnsim.nodesNumber = 240
dtnsim.node[*].icon = "satellite"

# Nodes's failure rates
dtnsim.node[*].fault.enable = true
dtnsim.node[*].fault.meanTTF = 40s
dtnsim.node[*].fault.meanTTR = 10s

# Mobility
dtnsim.node[*].hasMobility = true
dtnsim.node[*].noradModule.satIndex = parentIndex()
dtnsim.node[*].noradModule.satName = "sat"
**.updateInterval = 20s
**.numOfSats = 240
**.satPerPlane = 12
**.altitude = 540
**.planes = 20
**.phaseOffset = 11

dtnsim.node[*].dtn.routing = "antop"
dtnsim.node[*].dtn.printRoutingDebug = true

# --- Random Traffic Configuration ---
# Node 1 random traffic
dtnsim.node[1].app.enable = true
dtnsim.node[1].app.bundlesNumber = "1,1,1,1,1,1,1,1,1,1,1,1,1,1,1,1,1,1,1,1,1,1,1,1,1,1,1,1,1,1,1,1,1,1,1,1,1,1,1,1,1,1,1,1,1,1,1,1,1,1,1,1,1,1,1,1,1,1,1,1,1,1,1,1,1,1,1,1,1,1,1,1,1,1,1,1,1,1,1,1,1,1,1,1,1,1,1,1,1,1,1,1,1,1,1,1,1,1,1,1"
dtnsim.node[1].app.start = "11,4,12,19,13,12,12,20,3,14,1,11,13,12,11,17,6,17,10,16,15,1,4,11,12,14,2,16,1,1,14,5,1,18,19,4,13,15,14,13,14,11,9,5,20,5,6,5,6,6,5,8,15,13,17,8,15,2,1,11,18,1,7,15,18,11,10,6,3,20,12,18,17,17,10,20,13,20,17,15,18,14,8,20,16,14,20,9,8,13,13,9,14,5,18,16,9,3,7,8"
dtnsim.node[1].app.destinationEid = "149,97,15,156,64,34,103,175,153,150,229,108,151,127,187,206,234,62,65,162,239,38,5,205,171,71,143,175,69,36,31,10,198,225,170,205,112,168,138,201,70,47,159,104,236,172,28,118,43,3,205,3,25,114,24,56,107,91,57,90,124,107,124,168,38,226,223,212,91,181,15,31,22,214,195,11,238,34,225,99,165,43,111,156,82,207,207,52,49,165,237,47,101,189,214,98,132,27,192,133"
dtnsim.node[1].app.size = "500,200,100,100,50,50,200,200,50,500,50,50,200,500,500,100,100,200,50,100,50,100,200,50,200,200,200,500,100,500,100,500,100,500,500,500,500,100,50,200,100,100,50,200,100,500,50,200,500,100,100,100,100,500,200,200,200,100,200,200,200,500,200,100,100,500,500,500,200,50,500,200,100,100,200,500,100,100,50,50,100,500,500,500,50,50,50,100,100,500,500,500,200,500,50,200,50,200,200,50"
        # Node 2 random traffic
dtnsim.node[2].app.enable = true
dtnsim.node[2].app.bundlesNumber = "1,1,1,1,1,1,1,1,1,1,1,1,1,1,1,1,1,1,1,1,1,1,1,1,1,1,1,1,1,1,1,1,1,1,1,1,1,1,1,1,1,1,1,1,1,1,1,1,1,1,1,1,1,1,1,1,1,1,1,1,1,1,1,1,1,1,1,1,1,1,1,1,1,1,1,1,1,1,1,1,1,1,1,1,1,1,1,1,1,1,1,1,1,1,1,1,1,1,1,1"
dtnsim.node[2].app.start = "17,13,11,5,7,7,14,11,3,6,17,20,7,2,13,8,3,9,10,2,8,11,10,18,14,5,20,8,15,9,14,16,15,15,19,10,20,10,2,18,7,15,2,4,7,3,11,17,16,8,17,9,2,14,18,13,8,17,2,9,7,3,17,10,3,7,15,16,10,6,14,17,17,9,12,12,16,17,16,5,5,8,10,20,1,1,3,16,13,5,15,19,20,6,11,9,6,8,12,2"
dtnsim.node[2].app.destinationEid = "16,88,33,170,143,58,32,195,207,27,94,137,71,200,109,142,112,182,196,60,76,225,218,55,30,3,27,133,108,157,46,169,54,207,163,68,183,201,103,233,59,65,74,109,198,153,25,88,50,227,237,128,230,45,153,200,74,149,185,192,85,160,20,123,113,8,196,18,189,28,5,183,40,197,147,9,68,24,22,149,89,144,154,203,178,140,156,183,131,44,53,165,50,6,132,146,134,109,117,81"
dtnsim.node[2].app.size = "50,100,100,50,100,200,50,50,500,100,100,500,50,500,200,200,200,200,50,200,50,500,500,50,100,50,100,50,50,50,50,500,50,100,100,500,200,100,500,200,50,500,200,100,500,50,50,100,500,200,500,500,500,200,200,500,100,200,100,500,500,50,50,100,500,100,100,100,200,200,500,500,100,200,100,50,200,100,100,200,500,50,100,50,200,100,50,100,200,200,200,50,200,500,500,500,50,200,100,50"
        # Node 3 random traffic
dtnsim.node[3].app.enable = true
dtnsim.node[3].app.bundlesNumber = "1,1,1,1,1,1,1,1,1,1,1,1,1,1,1,1,1,1,1,1,1,1,1,1,1,1,1,1,1,1,1,1,1,1,1,1,1,1,1,1,1,1,1,1,1,1,1,1,1,1,1,1,1,1,1,1,1,1,1,1,1,1,1,1,1,1,1,1,1,1,1,1,1,1,1,1,1,1,1,1,1,1,1,1,1,1,1,1,1,1,1,1,1,1,1,1,1,1,1,1"
dtnsim.node[3].app.start = "17,3,16,16,10,11,8,14,17,17,16,17,20,8,6,19,20,5,9,17,18,17,3,8,14,6,9,6,16,2,2,10,5,6,3,12,7,8,10,5,11,11,8,19,5,12,18,13,16,3,1,20,12,20,7,20,5,20,6,11,8,11,19,4,19,11,17,15,10,11,17,17,19,5,9,17,2,6,20,4,9,9,3,10,11,3,20,1,1,17,10,7,1,14,18,18,7,18,9,1"
dtnsim.node[3].app.destinationEid = "93,50,52,148,11,180,79,4,121,84,206,65,193,92,55,236,137,109,148,202,128,1,98,164,51,152,114,228,10,234,121,30,213,188,140,65,112,69,9,153,96,8,20,111,60,122,227,54,111,156,2,23,183,40,12,10,21,240,61,190,226,180,171,200,139,194,191,170,121,231,132,28,106,52,17,172,45,117,15,236,52,110,107,7,106,144,83,13,224,73,234,178,109,19,78,148,43,194,237,35"
dtnsim.node[3].app.size = "50,50,50,500,100,100,50,200,100,500,200,200,200,100,50,500,200,200,200,50,100,100,500,500,200,500,50,500,50,500,100,500,100,100,200,500,500,200,50,50,100,200,50,500,50,200,100,100,50,50,500,200,500,500,100,100,100,50,100,50,50,100,500,200,50,500,100,200,500,200,100,100,100,200,200,500,100,500,500,200,200,500,50,100,200,200,500,100,100,200,50,100,50,50,100,500,200,50,50,100"
        # Node 4 random traffic
dtnsim.node[4].app.enable = true
dtnsim.node[4].app.bundlesNumber = "1,1,1,1,1,1,1,1,1,1,1,1,1,1,1,1,1,1,1,1,1,1,1,1,1,1,1,1,1,1,1,1,1,1,1,1,1,1,1,1,1,1,1,1,1,1,1,1,1,1,1,1,1,1,1,1,1,1,1,1,1,1,1,1,1,1,1,1,1,1,1,1,1,1,1,1,1,1,1,1,1,1,1,1,1,1,1,1,1,1,1,1,1,1,1,1,1,1,1,1"
dtnsim.node[4].app.start = "5,2,5,16,17,18,14,19,4,6,9,6,13,8,8,5,9,14,5,15,8,11,14,3,18,12,19,4,11,13,9,2,9,14,13,8,15,3,15,1,7,15,9,15,20,19,1,1,5,7,9,6,8,11,12,14,18,15,19,3,3,20,19,13,17,13,16,14,18,1,8,19,4,19,9,9,10,20,12,10,14,19,6,5,5,15,7,5,18,11,15,16,1,2,6,7,8,13,9,2"
dtnsim.node[4].app.destinationEid = "133,91,187,153,174,213,22,193,41,128,208,83,93,187,25,225,136,126,114,25,69,149,7,213,219,64,160,222,36,194,72,85,184,128,1,14,151,74,131,81,223,220,63,140,232,99,9,227,231,204,21,197,83,206,106,49,22,74,164,171,165,24,170,146,33,14,41,230,42,132,52,153,114,17,61,13,91,203,232,80,107,174,209,94,177,172,24,28,22,235,36,5,120,162,193,111,120,61,41,188"
dtnsim.node[4].app.size = "200,500,100,500,500,500,50,50,200,500,200,500,50,50,500,200,50,100,100,100,50,500,500,100,50,100,100,100,100,500,50,50,500,50,100,200,100,200,500,100,100,200,500,200,200,200,100,500,50,200,100,200,100,50,100,200,200,100,100,50,200,50,50,50,100,100,200,100,500,100,500,500,200,200,500,50,500,50,50,500,500,100,500,500,200,200,500,200,50,500,50,500,50,50,200,100,200,200,200,50"
        # Node 5 random traffic
dtnsim.node[5].app.enable = true
dtnsim.node[5].app.bundlesNumber = "1,1,1,1,1,1,1,1,1,1,1,1,1,1,1,1,1,1,1,1,1,1,1,1,1,1,1,1,1,1,1,1,1,1,1,1,1,1,1,1,1,1,1,1,1,1,1,1,1,1,1,1,1,1,1,1,1,1,1,1,1,1,1,1,1,1,1,1,1,1,1,1,1,1,1,1,1,1,1,1,1,1,1,1,1,1,1,1,1,1,1,1,1,1,1,1,1,1,1,1"
dtnsim.node[5].app.start = "13,15,20,20,16,10,8,9,13,4,11,9,11,8,4,4,14,19,11,9,4,9,16,7,13,15,9,1,4,13,7,19,8,10,13,13,19,15,7,16,16,9,7,12,12,4,16,1,12,2,19,7,20,6,16,16,5,12,1,4,17,2,8,15,12,17,6,12,7,11,11,5,20,1,6,11,12,7,12,15,6,5,6,12,16,20,12,18,6,18,3,13,5,7,17,11,12,17,2,13"
dtnsim.node[5].app.destinationEid = "109,55,32,92,34,57,19,228,138,228,92,234,205,181,109,190,64,141,198,155,120,172,29,87,183,11,162,98,16,123,76,104,92,220,64,87,77,24,220,228,213,213,74,71,9,87,87,123,44,89,62,135,202,116,45,69,9,138,155,35,196,235,40,220,78,32,7,229,76,31,112,45,203,68,165,218,124,136,83,121,4,201,75,200,33,15,153,15,107,1,71,197,106,158,207,175,182,236,104,124"
dtnsim.node[5].app.size = "200,100,50,100,50,200,100,200,500,50,200,500,100,50,50,50,50,200,200,200,50,200,50,200,500,500,500,200,100,100,100,500,50,200,50,100,50,50,200,50,50,200,50,500,200,100,500,50,200,50,50,100,50,100,200,200,100,200,100,500,100,500,100,500,200,50,50,200,50,200,100,200,50,100,100,100,200,100,50,200,100,200,50,200,500,200,100,500,100,50,200,500,100,50,50,100,200,100,50,500"
        # Node 6 random traffic
dtnsim.node[6].app.enable = true
dtnsim.node[6].app.bundlesNumber = "1,1,1,1,1,1,1,1,1,1,1,1,1,1,1,1,1,1,1,1,1,1,1,1,1,1,1,1,1,1,1,1,1,1,1,1,1,1,1,1,1,1,1,1,1,1,1,1,1,1,1,1,1,1,1,1,1,1,1,1,1,1,1,1,1,1,1,1,1,1,1,1,1,1,1,1,1,1,1,1,1,1,1,1,1,1,1,1,1,1,1,1,1,1,1,1,1,1,1,1"
dtnsim.node[6].app.start = "7,18,12,17,18,6,6,3,14,18,13,12,14,15,14,6,1,2,10,4,11,5,2,17,8,6,14,8,16,3,6,20,7,10,7,13,20,6,13,5,19,4,13,11,15,7,6,1,12,10,20,14,18,5,16,11,18,4,10,12,19,9,18,14,13,18,11,3,4,6,10,15,12,18,17,11,9,7,3,14,16,2,15,6,10,11,10,5,9,16,5,15,5,2,5,5,14,2,11,5"
dtnsim.node[6].app.destinationEid = "209,42,196,27,158,95,188,12,11,238,14,238,225,225,232,86,195,65,54,94,215,14,181,151,20,43,219,236,216,76,4,118,201,115,74,217,226,198,13,96,166,199,47,38,130,119,197,215,42,36,121,50,212,203,113,110,96,154,85,173,154,35,40,199,91,130,97,173,25,85,55,217,238,48,124,209,204,233,100,189,95,57,20,151,196,134,35,127,152,109,226,103,156,163,153,94,118,196,109,167"
dtnsim.node[6].app.size = "500,200,500,50,100,500,200,50,200,500,50,50,100,100,500,100,50,50,500,500,200,50,500,50,50,200,50,100,200,50,200,200,200,500,500,200,200,100,500,100,200,50,500,100,500,500,200,200,100,200,50,500,500,200,100,50,500,100,100,200,500,200,50,500,50,50,200,500,50,100,500,100,100,200,500,200,500,200,100,50,500,50,50,100,100,200,200,50,500,200,100,100,500,200,200,50,200,50,50,200"
        # Node 7 random traffic
dtnsim.node[7].app.enable = true
dtnsim.node[7].app.bundlesNumber = "1,1,1,1,1,1,1,1,1,1,1,1,1,1,1,1,1,1,1,1,1,1,1,1,1,1,1,1,1,1,1,1,1,1,1,1,1,1,1,1,1,1,1,1,1,1,1,1,1,1,1,1,1,1,1,1,1,1,1,1,1,1,1,1,1,1,1,1,1,1,1,1,1,1,1,1,1,1,1,1,1,1,1,1,1,1,1,1,1,1,1,1,1,1,1,1,1,1,1,1"
dtnsim.node[7].app.start = "1,19,1,5,4,12,13,6,12,19,5,10,13,19,10,1,20,10,4,10,20,17,4,2,13,6,4,16,1,2,4,13,8,19,16,8,6,18,15,16,10,12,11,4,6,12,5,2,2,9,8,4,1,14,6,4,7,17,6,11,19,5,17,17,18,13,13,18,1,7,15,1,2,14,17,4,13,14,6,4,7,16,20,4,14,10,20,18,5,16,16,3,4,15,8,15,15,2,2,17"
dtnsim.node[7].app.destinationEid = "128,194,65,141,224,146,198,217,21,114,117,70,2,4,108,185,68,42,20,26,114,54,169,28,3,176,6,235,174,120,229,33,91,146,41,209,145,141,147,187,80,240,110,203,205,108,206,194,197,225,227,26,179,157,170,169,23,122,211,220,205,138,215,87,176,94,180,116,110,240,153,148,22,52,146,192,21,3,198,143,27,219,222,71,162,118,23,160,92,240,4,215,162,57,171,108,25,96,232,78"
dtnsim.node[7].app.size = "200,500,50,200,100,50,200,200,50,100,200,50,500,50,500,200,200,200,50,500,500,500,500,100,50,500,200,50,100,200,200,100,100,100,50,500,100,50,200,100,50,200,500,200,500,100,200,200,100,500,500,50,200,50,100,200,500,50,100,50,200,500,50,200,500,500,500,500,100,500,100,200,500,200,500,500,500,50,50,500,200,50,500,100,100,50,500,500,500,500,200,500,200,500,50,500,50,50,200,100"
        # Node 8 random traffic
dtnsim.node[8].app.enable = true
dtnsim.node[8].app.bundlesNumber = "1,1,1,1,1,1,1,1,1,1,1,1,1,1,1,1,1,1,1,1,1,1,1,1,1,1,1,1,1,1,1,1,1,1,1,1,1,1,1,1,1,1,1,1,1,1,1,1,1,1,1,1,1,1,1,1,1,1,1,1,1,1,1,1,1,1,1,1,1,1,1,1,1,1,1,1,1,1,1,1,1,1,1,1,1,1,1,1,1,1,1,1,1,1,1,1,1,1,1,1"
dtnsim.node[8].app.start = "3,7,9,20,16,15,18,6,4,5,14,20,5,10,5,7,1,2,14,11,1,8,4,20,9,10,11,2,2,20,7,15,11,2,6,12,7,12,18,9,16,7,5,11,17,7,2,7,5,1,12,17,6,14,10,11,18,16,18,18,12,20,20,14,3,6,1,19,10,11,4,4,15,17,17,3,17,2,12,14,18,1,1,12,18,9,5,12,8,1,2,20,14,1,1,6,2,13,20,10"
dtnsim.node[8].app.destinationEid = "33,213,10,173,88,4,19,224,34,197,218,232,181,35,190,63,50,229,106,75,69,176,226,222,168,135,210,78,148,112,195,21,109,64,97,60,239,74,46,216,153,182,24,136,149,80,172,237,230,66,230,116,206,67,106,175,109,37,233,97,119,226,95,63,155,59,38,61,47,80,72,85,43,142,141,10,59,10,67,92,230,206,70,28,18,134,173,220,156,82,131,220,225,21,34,148,52,117,229,69"
dtnsim.node[8].app.size = "500,200,50,50,100,200,50,500,200,200,50,50,50,100,100,50,500,50,100,500,100,100,50,50,100,200,500,200,500,200,200,200,200,200,200,200,200,50,500,200,200,100,500,100,200,500,100,50,200,500,50,50,50,100,500,200,100,100,50,50,200,50,500,500,200,100,200,200,500,100,50,100,50,500,50,500,50,500,500,100,200,100,100,50,50,200,100,50,500,200,100,500,500,500,500,500,100,100,100,200"
        # Node 9 random traffic
dtnsim.node[9].app.enable = true
dtnsim.node[9].app.bundlesNumber = "1,1,1,1,1,1,1,1,1,1,1,1,1,1,1,1,1,1,1,1,1,1,1,1,1,1,1,1,1,1,1,1,1,1,1,1,1,1,1,1,1,1,1,1,1,1,1,1,1,1,1,1,1,1,1,1,1,1,1,1,1,1,1,1,1,1,1,1,1,1,1,1,1,1,1,1,1,1,1,1,1,1,1,1,1,1,1,1,1,1,1,1,1,1,1,1,1,1,1,1"
dtnsim.node[9].app.start = "17,1,4,19,18,3,9,18,7,6,17,11,16,20,6,6,6,11,9,2,7,18,1,14,7,11,20,11,7,10,16,1,14,9,16,15,15,4,5,7,6,17,11,5,16,12,17,18,5,7,11,18,2,9,19,14,11,8,20,6,15,7,14,14,19,13,1,7,17,18,1,18,12,18,3,13,16,16,8,6,6,19,8,5,8,12,18,11,20,12,8,11,3,3,1,9,9,11,1,1"
dtnsim.node[9].app.destinationEid = "142,150,224,164,15,62,59,19,208,157,70,223,77,7,150,76,205,168,38,141,4,25,220,172,189,229,36,149,155,122,126,112,11,20,112,166,178,187,47,58,61,185,13,53,62,119,22,74,165,164,189,21,77,29,229,34,81,161,185,148,149,38,135,77,233,39,158,93,177,20,137,27,21,18,187,93,160,67,234,191,152,179,171,236,120,79,180,56,37,173,174,150,28,151,26,120,47,58,27,8"
dtnsim.node[9].app.size = "500,100,200,100,500,100,500,50,50,100,100,100,100,500,500,50,500,500,200,100,50,100,500,100,100,500,50,100,100,50,50,200,500,500,200,50,500,500,50,200,500,50,100,50,100,50,100,100,100,500,200,100,200,500,500,100,500,50,500,50,50,200,50,200,500,500,100,200,50,500,200,50,100,500,50,50,50,50,50,500,200,50,100,200,50,100,500,100,200,200,200,200,100,500,100,50,200,100,200,100"
        # Node 10 random traffic
dtnsim.node[10].app.enable = true
dtnsim.node[10].app.bundlesNumber = "1,1,1,1,1,1,1,1,1,1,1,1,1,1,1,1,1,1,1,1,1,1,1,1,1,1,1,1,1,1,1,1,1,1,1,1,1,1,1,1,1,1,1,1,1,1,1,1,1,1,1,1,1,1,1,1,1,1,1,1,1,1,1,1,1,1,1,1,1,1,1,1,1,1,1,1,1,1,1,1,1,1,1,1,1,1,1,1,1,1,1,1,1,1,1,1,1,1,1,1"
dtnsim.node[10].app.start = "11,5,10,6,18,4,9,9,2,15,12,7,18,20,2,5,2,6,2,13,12,8,5,4,5,4,15,20,13,4,16,5,12,10,15,14,8,18,6,13,16,19,10,18,19,16,18,4,9,7,1,20,4,8,8,7,13,14,3,7,1,17,2,11,10,4,8,12,4,9,17,16,6,8,3,5,12,1,2,5,16,18,15,12,3,12,17,15,13,3,7,11,4,10,3,3,20,16,5,20"
dtnsim.node[10].app.destinationEid = "40,206,206,85,147,238,201,217,196,132,140,223,56,71,85,185,139,81,151,99,51,25,147,221,4,212,198,167,70,216,67,69,65,91,93,181,215,115,72,79,128,112,114,48,51,179,55,56,76,51,93,195,217,57,183,202,157,160,19,84,166,131,74,163,236,31,16,108,17,146,33,179,202,89,175,5,78,207,133,76,218,56,36,202,107,190,98,61,122,57,149,127,210,155,231,116,37,128,157,222"
dtnsim.node[10].app.size = "200,100,50,500,100,500,50,50,100,50,500,50,50,100,500,200,50,100,50,200,200,50,50,200,200,100,100,100,500,100,500,500,100,100,200,50,200,50,200,200,500,100,500,200,100,200,200,200,100,50,200,100,500,200,500,200,200,200,50,500,500,500,100,500,200,500,500,50,100,50,50,200,200,50,50,200,200,100,50,500,100,200,500,500,100,500,100,100,100,50,500,50,100,50,50,500,500,100,50,500"
        # Node 11 random traffic
dtnsim.node[11].app.enable = true
dtnsim.node[11].app.bundlesNumber = "1,1,1,1,1,1,1,1,1,1,1,1,1,1,1,1,1,1,1,1,1,1,1,1,1,1,1,1,1,1,1,1,1,1,1,1,1,1,1,1,1,1,1,1,1,1,1,1,1,1,1,1,1,1,1,1,1,1,1,1,1,1,1,1,1,1,1,1,1,1,1,1,1,1,1,1,1,1,1,1,1,1,1,1,1,1,1,1,1,1,1,1,1,1,1,1,1,1,1,1"
dtnsim.node[11].app.start = "7,9,18,1,10,1,16,16,5,1,10,2,5,9,11,8,8,9,16,16,1,16,8,17,8,3,20,15,4,11,15,12,6,7,15,17,12,7,19,11,8,12,15,10,12,18,2,19,7,19,3,13,19,3,3,11,5,6,12,13,19,18,16,1,14,3,3,10,6,7,18,6,4,10,15,17,20,4,6,17,6,16,17,4,10,15,8,16,3,2,14,20,5,14,15,6,7,9,12,4"
dtnsim.node[11].app.destinationEid = "96,30,216,100,112,53,133,239,152,19,54,153,189,20,127,112,177,27,55,188,111,4,186,45,78,31,136,53,71,145,154,71,209,192,13,64,30,19,20,94,127,75,97,47,70,203,85,17,106,1,27,233,31,206,230,159,159,158,195,179,187,220,101,129,200,122,162,76,132,235,8,142,45,7,1,235,84,89,237,91,110,201,153,114,119,211,100,27,224,160,163,160,137,236,190,227,76,7,3,138"
dtnsim.node[11].app.size = "50,200,50,500,500,500,200,50,100,500,50,100,500,500,100,500,200,500,500,50,200,50,200,100,200,500,200,100,200,200,500,50,100,200,50,500,200,50,500,100,100,50,50,500,50,50,100,100,100,500,100,100,50,200,200,100,500,50,500,200,100,50,50,50,200,100,100,500,200,500,500,100,50,100,500,200,500,200,500,100,200,100,50,200,100,200,100,50,50,50,50,200,200,200,100,200,200,50,200,100"
        # Node 12 random traffic
dtnsim.node[12].app.enable = true
dtnsim.node[12].app.bundlesNumber = "1,1,1,1,1,1,1,1,1,1,1,1,1,1,1,1,1,1,1,1,1,1,1,1,1,1,1,1,1,1,1,1,1,1,1,1,1,1,1,1,1,1,1,1,1,1,1,1,1,1,1,1,1,1,1,1,1,1,1,1,1,1,1,1,1,1,1,1,1,1,1,1,1,1,1,1,1,1,1,1,1,1,1,1,1,1,1,1,1,1,1,1,1,1,1,1,1,1,1,1"
dtnsim.node[12].app.start = "3,11,17,1,8,1,6,12,12,9,1,3,17,2,7,3,5,12,12,4,7,6,9,10,2,15,7,1,5,14,19,2,20,12,13,18,1,2,5,3,7,14,11,1,6,2,19,13,1,1,12,2,19,15,15,18,5,6,1,19,2,6,9,4,9,15,15,7,12,12,18,1,13,13,19,4,5,17,2,20,13,18,19,16,19,13,20,1,15,3,17,7,20,12,15,8,1,16,11,6"
dtnsim.node[12].app.destinationEid = "136,186,189,128,194,225,183,36,11,233,159,45,191,115,131,22,104,101,51,220,73,32,239,144,233,187,97,118,222,194,150,236,139,50,100,29,126,89,69,180,156,226,141,149,159,166,175,192,13,140,24,85,193,175,169,189,8,163,46,110,158,130,76,137,20,207,18,232,146,162,102,13,202,43,211,29,191,95,79,165,93,56,165,159,4,36,31,205,209,209,102,127,182,61,3,146,236,152,95,7"
dtnsim.node[12].app.size = "200,200,500,500,100,100,200,50,100,50,50,100,50,200,500,100,100,50,50,200,200,200,500,100,200,500,500,500,100,200,500,100,500,50,200,200,100,200,500,100,500,500,500,500,500,100,200,100,200,50,100,200,500,200,50,100,500,50,50,500,200,50,200,100,200,100,100,500,50,500,100,100,100,100,500,50,100,200,500,500,50,200,50,100,200,100,500,100,500,50,200,50,50,200,500,500,50,200,100,200"
        # Node 13 random traffic
dtnsim.node[13].app.enable = true
dtnsim.node[13].app.bundlesNumber = "1,1,1,1,1,1,1,1,1,1,1,1,1,1,1,1,1,1,1,1,1,1,1,1,1,1,1,1,1,1,1,1,1,1,1,1,1,1,1,1,1,1,1,1,1,1,1,1,1,1,1,1,1,1,1,1,1,1,1,1,1,1,1,1,1,1,1,1,1,1,1,1,1,1,1,1,1,1,1,1,1,1,1,1,1,1,1,1,1,1,1,1,1,1,1,1,1,1,1,1"
dtnsim.node[13].app.start = "19,10,10,6,8,1,6,2,16,1,10,11,9,14,11,5,9,7,2,15,6,8,9,15,10,11,14,14,12,12,11,14,18,16,13,18,12,4,3,3,13,19,3,19,6,19,15,17,20,8,6,6,5,20,10,16,2,2,8,2,10,10,19,19,9,20,3,14,8,2,5,8,11,19,18,12,7,1,12,3,6,10,15,13,13,4,6,11,4,18,5,14,17,3,17,18,20,18,17,6"
dtnsim.node[13].app.destinationEid = "85,23,79,146,19,227,162,114,74,61,194,83,176,122,196,235,87,54,164,69,85,42,193,130,219,190,112,234,78,74,182,47,75,232,227,84,55,235,91,35,210,150,203,92,54,66,83,58,179,16,23,183,105,133,68,225,235,124,109,40,235,189,89,144,191,86,8,185,186,136,181,57,80,192,22,8,213,238,173,78,176,202,128,182,146,143,113,2,222,162,84,32,104,113,232,74,137,195,226,171"
dtnsim.node[13].app.size = "50,50,100,500,500,200,500,50,100,50,100,100,500,50,50,500,50,500,500,100,500,500,500,500,50,200,500,50,100,100,50,50,100,200,200,100,50,100,500,100,500,50,200,200,100,500,50,100,50,500,200,500,50,200,50,50,100,500,500,50,200,500,100,500,200,100,50,100,50,50,100,100,200,100,200,100,50,500,500,500,100,100,500,500,500,500,50,200,50,200,100,50,50,200,500,100,200,50,50,500"
        # Node 14 random traffic
dtnsim.node[14].app.enable = true
dtnsim.node[14].app.bundlesNumber = "1,1,1,1,1,1,1,1,1,1,1,1,1,1,1,1,1,1,1,1,1,1,1,1,1,1,1,1,1,1,1,1,1,1,1,1,1,1,1,1,1,1,1,1,1,1,1,1,1,1,1,1,1,1,1,1,1,1,1,1,1,1,1,1,1,1,1,1,1,1,1,1,1,1,1,1,1,1,1,1,1,1,1,1,1,1,1,1,1,1,1,1,1,1,1,1,1,1,1,1"
dtnsim.node[14].app.start = "5,15,9,13,1,10,17,7,15,10,9,11,14,4,12,17,7,1,13,13,6,6,14,4,10,11,7,13,9,11,10,12,15,3,2,4,2,19,11,1,12,9,19,9,8,11,9,12,13,8,18,4,13,5,19,10,4,17,16,16,19,1,18,8,8,11,6,8,20,18,4,9,6,5,4,1,1,5,20,18,10,12,16,3,6,19,5,18,16,10,9,15,18,1,7,20,5,14,17,19"
dtnsim.node[14].app.destinationEid = "174,233,232,211,193,217,190,75,93,25,198,190,100,21,189,146,174,57,85,211,230,122,86,190,180,114,47,102,147,229,156,29,63,82,207,81,62,156,99,64,167,16,179,236,16,2,134,173,47,135,40,148,56,179,142,131,236,44,94,178,102,107,40,134,54,179,161,89,192,48,38,179,118,28,114,34,53,3,65,39,188,172,52,107,88,119,19,7,132,61,87,64,79,154,156,233,30,131,208,230"
dtnsim.node[14].app.size = "200,500,100,100,50,500,200,100,50,50,500,200,200,100,200,100,500,500,100,100,50,100,200,100,200,200,500,50,100,500,500,500,200,100,200,50,100,500,100,500,500,500,500,500,500,100,500,200,200,200,500,50,100,100,100,500,100,200,100,200,100,100,100,500,500,500,50,500,100,50,500,50,100,50,500,50,50,200,50,50,100,50,100,200,500,50,50,200,500,500,50,100,500,500,200,100,100,100,500,200"
        # Node 15 random traffic
dtnsim.node[15].app.enable = true
dtnsim.node[15].app.bundlesNumber = "1,1,1,1,1,1,1,1,1,1,1,1,1,1,1,1,1,1,1,1,1,1,1,1,1,1,1,1,1,1,1,1,1,1,1,1,1,1,1,1,1,1,1,1,1,1,1,1,1,1,1,1,1,1,1,1,1,1,1,1,1,1,1,1,1,1,1,1,1,1,1,1,1,1,1,1,1,1,1,1,1,1,1,1,1,1,1,1,1,1,1,1,1,1,1,1,1,1,1,1"
dtnsim.node[15].app.start = "2,3,11,20,14,4,15,20,11,19,18,8,16,20,16,16,17,12,20,9,11,4,19,5,11,4,4,16,4,11,20,18,14,20,5,16,5,14,12,1,3,10,7,8,15,10,2,15,15,20,12,8,18,15,2,16,1,16,2,8,12,13,7,3,16,1,4,14,7,2,12,5,1,7,18,9,2,7,7,10,13,11,7,9,19,16,13,1,7,5,17,2,8,6,9,7,18,3,13,17"
dtnsim.node[15].app.destinationEid = "195,58,13,42,206,28,134,53,198,9,61,202,19,136,200,48,129,194,138,30,223,234,54,75,205,87,198,233,76,1,104,105,102,110,219,213,23,165,130,107,146,28,127,83,145,28,150,232,119,188,33,78,103,83,24,233,182,184,87,217,129,104,239,206,226,44,49,221,80,10,115,111,147,190,200,157,117,6,84,149,236,92,130,26,219,21,65,223,100,8,164,55,227,89,208,222,48,10,70,117"
dtnsim.node[15].app.size = "200,50,500,200,200,200,50,100,200,200,100,200,200,200,50,200,100,100,500,500,50,100,50,100,50,200,500,50,50,100,100,100,200,50,200,50,200,100,200,500,500,200,200,100,200,500,50,100,500,200,500,500,500,100,200,200,50,50,50,500,50,200,500,500,50,100,50,50,50,100,100,50,500,500,50,200,100,100,50,50,50,100,200,50,50,500,200,200,100,200,100,50,100,200,50,50,100,50,50,500"
        # Node 16 random traffic
dtnsim.node[16].app.enable = true
dtnsim.node[16].app.bundlesNumber = "1,1,1,1,1,1,1,1,1,1,1,1,1,1,1,1,1,1,1,1,1,1,1,1,1,1,1,1,1,1,1,1,1,1,1,1,1,1,1,1,1,1,1,1,1,1,1,1,1,1,1,1,1,1,1,1,1,1,1,1,1,1,1,1,1,1,1,1,1,1,1,1,1,1,1,1,1,1,1,1,1,1,1,1,1,1,1,1,1,1,1,1,1,1,1,1,1,1,1,1"
dtnsim.node[16].app.start = "1,2,8,16,5,6,15,20,17,2,1,11,19,5,12,5,16,5,3,3,3,1,13,10,9,2,20,12,13,9,3,20,17,8,10,1,2,1,20,5,5,6,2,1,7,8,4,5,14,15,12,10,5,15,7,18,3,13,2,8,18,3,20,3,9,20,4,10,14,15,6,11,9,17,7,14,12,7,18,10,16,19,16,14,19,1,17,18,9,12,12,9,4,1,7,19,20,10,4,17"
dtnsim.node[16].app.destinationEid = "187,94,30,146,87,80,107,62,28,73,197,202,164,60,112,205,14,84,13,72,87,64,239,213,174,140,233,220,200,206,156,226,54,227,218,135,50,86,130,194,89,126,231,218,156,162,126,147,232,144,49,97,55,5,161,172,15,67,173,39,228,168,125,108,87,134,66,172,161,64,211,183,19,122,26,228,101,106,111,78,138,140,94,221,181,71,38,78,159,153,237,201,84,174,132,182,142,104,116,186"
dtnsim.node[16].app.size = "50,500,500,50,500,100,50,200,200,200,100,100,50,50,50,500,500,200,50,200,500,200,200,100,50,100,500,100,200,500,500,500,50,100,100,50,200,200,100,200,50,50,500,200,100,500,500,500,500,200,100,100,500,100,100,100,100,100,100,100,200,200,100,500,200,500,50,500,100,50,100,500,50,100,200,100,200,500,100,200,100,50,100,200,50,50,500,500,500,50,500,50,200,50,200,200,500,200,100,100"
        # Node 17 random traffic
dtnsim.node[17].app.enable = true
dtnsim.node[17].app.bundlesNumber = "1,1,1,1,1,1,1,1,1,1,1,1,1,1,1,1,1,1,1,1,1,1,1,1,1,1,1,1,1,1,1,1,1,1,1,1,1,1,1,1,1,1,1,1,1,1,1,1,1,1,1,1,1,1,1,1,1,1,1,1,1,1,1,1,1,1,1,1,1,1,1,1,1,1,1,1,1,1,1,1,1,1,1,1,1,1,1,1,1,1,1,1,1,1,1,1,1,1,1,1"
dtnsim.node[17].app.start = "15,17,1,18,16,10,19,18,1,19,20,4,1,6,2,13,7,6,8,4,6,4,6,10,5,14,7,15,16,15,16,3,14,1,2,15,7,14,5,13,8,4,3,19,20,12,11,16,2,18,4,16,16,13,9,11,14,20,14,4,6,10,13,9,7,1,17,20,16,10,8,4,14,10,5,6,6,1,2,12,8,17,10,12,10,3,9,19,10,8,5,10,7,6,15,15,12,16,5,7"
dtnsim.node[17].app.destinationEid = "15,51,80,51,233,67,77,131,85,159,214,194,79,135,185,230,156,163,87,61,11,18,130,48,203,78,83,133,86,181,142,6,95,62,78,218,67,72,174,85,148,154,164,21,66,201,128,25,103,49,184,187,155,4,28,202,65,51,66,94,127,48,24,78,14,165,33,188,59,209,151,85,167,13,189,148,175,238,178,45,97,32,19,182,196,231,194,226,60,73,134,12,9,71,215,52,63,229,29,160"
dtnsim.node[17].app.size = "50,500,50,200,50,50,50,100,100,100,50,200,500,100,500,50,500,200,200,100,500,100,200,100,200,50,500,50,500,200,100,100,200,50,100,100,200,200,500,100,500,100,100,500,200,50,50,100,200,50,50,100,50,500,500,100,50,50,50,500,200,50,50,500,50,50,100,50,100,200,100,200,500,50,50,100,500,200,500,200,100,200,200,500,200,200,50,200,50,500,100,500,100,50,200,200,200,500,50,50"
        # Node 18 random traffic
dtnsim.node[18].app.enable = true
dtnsim.node[18].app.bundlesNumber = "1,1,1,1,1,1,1,1,1,1,1,1,1,1,1,1,1,1,1,1,1,1,1,1,1,1,1,1,1,1,1,1,1,1,1,1,1,1,1,1,1,1,1,1,1,1,1,1,1,1,1,1,1,1,1,1,1,1,1,1,1,1,1,1,1,1,1,1,1,1,1,1,1,1,1,1,1,1,1,1,1,1,1,1,1,1,1,1,1,1,1,1,1,1,1,1,1,1,1,1"
dtnsim.node[18].app.start = "17,13,12,15,15,12,5,17,18,18,12,20,19,9,7,7,20,5,2,4,8,9,7,6,18,14,7,17,7,17,10,3,14,4,6,15,19,11,1,12,12,8,9,12,8,6,11,11,15,17,1,1,14,7,1,2,19,15,9,4,7,1,2,3,11,4,15,15,20,11,19,19,4,2,15,6,3,9,11,16,17,12,16,3,20,20,8,16,15,8,19,5,4,6,3,10,1,5,16,1"
dtnsim.node[18].app.destinationEid = "76,162,22,134,142,114,189,74,124,124,82,120,38,166,228,136,42,88,9,54,23,198,75,65,67,202,84,141,130,159,174,193,181,206,104,62,17,58,33,22,164,86,177,189,147,102,2,63,124,172,22,58,58,84,223,5,109,105,229,193,138,61,20,192,161,196,203,188,117,37,190,35,31,199,126,44,141,128,147,150,49,137,78,135,224,143,42,113,103,207,188,125,142,92,72,144,138,188,26,70"
dtnsim.node[18].app.size = "200,500,100,500,100,500,50,50,200,200,50,100,50,50,200,500,500,100,100,500,100,500,100,200,500,200,200,50,50,50,200,100,50,500,50,500,500,200,500,100,50,200,200,50,50,500,500,500,200,200,100,200,500,500,200,200,500,500,100,50,100,500,50,500,200,50,500,50,50,50,500,100,50,500,500,500,200,200,200,500,500,500,100,500,50,50,100,50,200,200,100,500,200,500,100,200,500,50,200,200"
        # Node 19 random traffic
dtnsim.node[19].app.enable = true
dtnsim.node[19].app.bundlesNumber = "1,1,1,1,1,1,1,1,1,1,1,1,1,1,1,1,1,1,1,1,1,1,1,1,1,1,1,1,1,1,1,1,1,1,1,1,1,1,1,1,1,1,1,1,1,1,1,1,1,1,1,1,1,1,1,1,1,1,1,1,1,1,1,1,1,1,1,1,1,1,1,1,1,1,1,1,1,1,1,1,1,1,1,1,1,1,1,1,1,1,1,1,1,1,1,1,1,1,1,1"
dtnsim.node[19].app.start = "7,20,1,20,5,10,8,6,6,19,5,12,8,15,7,6,11,2,4,7,1,1,5,11,15,7,10,4,17,13,5,18,19,2,16,1,5,6,4,5,17,20,16,2,1,15,7,9,2,20,1,17,7,8,9,4,1,18,2,16,17,5,18,4,17,8,12,1,14,16,8,1,20,13,16,2,18,10,4,3,8,10,16,9,20,19,11,4,18,10,10,4,6,9,14,3,19,1,3,2"
dtnsim.node[19].app.destinationEid = "41,90,173,204,82,190,16,176,181,153,124,55,90,116,39,166,17,33,73,180,53,89,42,177,161,28,92,45,203,207,226,61,108,141,191,4,103,159,46,235,136,32,190,127,183,33,124,74,74,80,167,178,43,82,147,33,37,138,93,31,92,95,13,112,174,227,33,75,186,162,214,21,15,160,155,124,58,231,161,62,240,63,163,110,128,43,111,90,175,150,38,47,1,198,33,220,28,1,182,46"
dtnsim.node[19].app.size = "100,50,50,100,500,200,50,200,50,100,100,500,500,200,50,500,500,200,50,100,500,50,100,50,500,50,500,100,100,50,50,500,500,500,200,500,50,100,100,200,200,200,100,100,500,50,100,50,50,500,500,500,50,50,500,200,500,50,200,100,500,50,100,50,500,500,50,50,500,100,50,50,50,200,100,200,200,50,50,500,50,500,200,100,100,500,200,200,100,200,100,100,100,50,500,50,200,200,200,100"
        # Node 20 random traffic
dtnsim.node[20].app.enable = true
dtnsim.node[20].app.bundlesNumber = "1,1,1,1,1,1,1,1,1,1,1,1,1,1,1,1,1,1,1,1,1,1,1,1,1,1,1,1,1,1,1,1,1,1,1,1,1,1,1,1,1,1,1,1,1,1,1,1,1,1,1,1,1,1,1,1,1,1,1,1,1,1,1,1,1,1,1,1,1,1,1,1,1,1,1,1,1,1,1,1,1,1,1,1,1,1,1,1,1,1,1,1,1,1,1,1,1,1,1,1"
dtnsim.node[20].app.start = "20,14,1,4,5,13,7,6,5,4,19,13,19,6,7,6,9,11,17,15,19,15,16,1,12,9,18,19,15,11,19,7,11,20,8,15,8,3,3,3,15,4,10,4,14,11,1,9,20,13,8,20,17,17,15,20,9,1,18,13,19,19,5,11,19,2,5,1,19,7,11,17,6,20,6,3,4,14,15,4,6,2,2,11,3,12,2,14,6,2,1,14,16,3,2,14,2,5,2,16"
dtnsim.node[20].app.destinationEid = "90,54,87,23,200,22,189,144,121,1,58,163,229,4,111,167,148,224,29,30,227,46,124,166,220,2,41,71,63,233,136,144,47,22,51,82,62,166,206,148,118,40,236,104,131,104,3,2,25,94,48,19,82,25,68,121,45,144,140,45,17,213,70,78,190,59,128,232,73,141,22,152,167,86,168,138,177,7,99,95,239,38,45,50,227,194,174,206,90,160,138,61,84,68,49,10,217,183,24,178"
dtnsim.node[20].app.size = "200,200,500,50,50,500,100,50,50,100,500,50,200,100,50,200,500,50,500,200,100,200,50,50,100,100,200,100,500,50,200,200,100,200,500,500,200,100,500,100,200,100,200,100,100,50,50,50,500,200,500,200,50,200,50,500,100,100,500,100,100,100,100,500,200,100,200,500,100,200,50,100,200,50,50,200,100,50,50,500,50,50,200,100,100,50,200,100,50,100,500,100,100,200,200,100,500,200,200,100"
        # Node 21 random traffic
dtnsim.node[21].app.enable = true
dtnsim.node[21].app.bundlesNumber = "1,1,1,1,1,1,1,1,1,1,1,1,1,1,1,1,1,1,1,1,1,1,1,1,1,1,1,1,1,1,1,1,1,1,1,1,1,1,1,1,1,1,1,1,1,1,1,1,1,1,1,1,1,1,1,1,1,1,1,1,1,1,1,1,1,1,1,1,1,1,1,1,1,1,1,1,1,1,1,1,1,1,1,1,1,1,1,1,1,1,1,1,1,1,1,1,1,1,1,1"
dtnsim.node[21].app.start = "14,14,19,3,19,16,13,18,8,16,6,11,19,6,3,15,3,2,15,6,6,18,14,11,2,6,4,8,13,2,17,15,3,2,10,13,8,16,3,6,16,2,19,14,5,6,13,8,12,9,19,12,19,7,13,2,16,9,17,10,14,10,18,14,17,16,11,18,16,13,16,8,16,7,17,3,2,20,17,14,9,13,1,19,20,6,15,4,18,17,20,16,1,7,5,9,6,10,1,14"
dtnsim.node[21].app.destinationEid = "182,175,83,185,10,217,86,43,126,124,179,66,134,186,221,80,12,141,200,33,188,27,41,217,147,25,52,56,231,86,16,104,14,105,190,173,131,70,233,108,65,58,50,134,64,125,112,122,199,71,186,203,39,42,70,101,102,238,96,236,76,38,39,167,2,9,217,134,166,196,48,184,60,123,213,230,62,109,147,32,79,186,233,138,179,40,84,86,208,219,182,103,52,226,8,22,204,227,74,224"
dtnsim.node[21].app.size = "500,200,500,50,500,50,500,200,50,50,100,200,100,50,500,50,100,200,100,500,100,500,50,50,500,50,100,50,500,200,500,50,500,50,50,50,500,50,500,50,50,500,500,100,500,500,500,50,100,200,100,200,500,100,500,500,200,100,200,50,200,500,200,50,100,200,200,200,50,100,100,50,500,50,200,200,500,200,50,50,500,200,100,200,50,50,200,200,500,50,200,200,500,500,500,100,500,500,50,500"
        # Node 22 random traffic
dtnsim.node[22].app.enable = true