[General]
network = src.dtnsim										
repeat = 1
allow-object-stealing-on-deletion = true

# Simulation end time
sim-time-limit = 84600s

# Nodes quantity (identifiers (EiDs) matches their index, EiD=0 is ignored)			
dtnsim.nodesNumber = 120
dtnsim.node[*].icon = "satellite"

# Nodes's failure rates
dtnsim.node[*].fault.enable = true
dtnsim.node[*].fault.meanTTF = 40s
dtnsim.node[*].fault.meanTTR = 10s

# Mobility
dtnsim.node[*].hasMobility = true
dtnsim.node[*].norad.satIndex = parentIndex()
dtnsim.node[*].norad.satName = "sat"
**.updateInterval = 20s
**.numOfSats = 120
**.satPerPlane = 10
**.altitude = 540
**.planes = 12
**.phaseOffset = 7

dtnsim.node[*].dtn.routing = "antop"
dtnsim.node[*].dtn.printRoutingDebug = true

# --- Random Traffic Configuration ---
# Node 1 random conversational traffic
dtnsim.node[1].app.enable = true
dtnsim.node[1].app.bundlesNumber = "5,2,3,3,1,5,2,4,4,2,5,5,3,3,5,3,4,4,2,4,4,4,5,3,5,3,1,1,5,1,3,3,3,5,5,3,2,2,3,4,4,1,4,2,2,2,3,2,5,1,3,5,2,2,1,3,3,3,3,2,1,4,5,3,3,3,3,2,1,2,2,2,3,4,2,5,2,3,3,2,4,5,1,3,1,2,1,1,4,4,4,3,1,4,5,1,2,3,4,1"
dtnsim.node[1].app.start = "96,59,96,79,76,17,11,45,20,36,63,99,88,33,23,92,85,32,66,56,74,63,64,6,41,62,17,3,41,35,51,73,96,83,30,36,89,5,60,82,78,28,88,59,55,40,23,86,36,88,73,57,96,55,26,63,25,97,8,53,86,30,64,26,81,16,81,53,69,32,59,22,71,1,91,19,78,98,16,37,97,13,8,25,98,28,68,72,91,68,14,33,87,7,19,76,4,51,79,28"
dtnsim.node[1].app.destinationEid = "2,2,2,2,2,2,2,2,2,2,2,2,2,2,2,2,2,2,2,2,2,2,2,2,2,2,2,2,2,2,2,2,2,2,2,2,2,2,2,2,2,2,2,2,2,2,2,2,2,2,2,2,2,2,2,2,2,2,2,2,2,2,2,2,2,2,2,2,2,2,2,2,2,2,2,2,2,2,2,2,2,2,2,2,2,2,2,2,2,2,2,2,2,2,2,2,2,2,2,2"
dtnsim.node[1].app.size = "50,50,500,200,100,500,100,500,500,500,200,200,500,500,50,100,100,500,50,500,200,100,500,500,200,50,500,50,500,500,200,500,100,50,500,100,200,50,500,50,50,100,50,50,50,50,500,200,500,50,50,200,500,200,50,500,200,100,200,50,100,100,200,50,100,500,50,50,500,100,500,200,50,200,100,100,50,50,500,500,100,50,200,200,100,500,500,500,50,200,50,200,50,500,200,50,500,500,500,50"
# Node 2 random conversational traffic
dtnsim.node[2].app.enable = true
dtnsim.node[2].app.bundlesNumber = "2,1,1,5,2,4,5,5,4,5,5,1,2,4,5,4,2,3,5,4,1,5,5,5,2,2,5,3,1,5,2,1,1,1,2,3,3,5,1,5,1,3,5,2,2,1,5,5,4,4,2,4,4,4,5,5,5,5,1,2,3,1,3,2,3,2,5,5,4,2,1,4,5,5,1,1,2,3,5,4,1,3,5,5,4,4,2,4,4,5,5,4,2,2,2,5,5,1,1,1"
dtnsim.node[2].app.start = "100,99,22,20,22,43,100,93,38,100,94,40,73,75,73,8,49,71,79,37,90,13,66,83,84,35,89,47,28,92,38,61,58,73,55,89,38,73,28,22,82,57,94,86,17,26,69,95,71,34,23,9,61,88,41,9,84,9,58,91,28,86,64,88,69,13,93,99,24,86,49,30,86,87,31,29,42,13,66,96,29,43,11,87,62,27,96,99,99,80,93,70,11,83,52,35,63,50,98,81"
dtnsim.node[2].app.destinationEid = "1,1,1,1,1,1,1,1,1,1,1,1,1,1,1,1,1,1,1,1,1,1,1,1,1,1,1,1,1,1,1,1,1,1,1,1,1,1,1,1,1,1,1,1,1,1,1,1,1,1,1,1,1,3,3,3,3,3,3,3,3,3,3,3,3,3,3,3,3,3,3,3,3,3,3,3,3,3,3,3,3,3,3,3,3,3,3,3,3,3,3,3,3,3,3,3,3,3,3,3"
dtnsim.node[2].app.size = "100,100,200,200,500,200,500,500,500,500,200,50,200,200,100,50,500,500,500,50,500,200,50,100,100,500,200,200,50,50,100,500,500,200,500,500,50,100,50,50,100,200,100,200,500,50,50,200,500,50,100,50,200,500,100,50,100,50,50,50,200,200,200,50,500,500,500,200,200,100,50,500,200,50,100,50,500,200,500,500,200,50,200,100,500,500,200,50,500,200,200,200,50,50,50,50,200,500,50,200"
# Node 3 random conversational traffic
dtnsim.node[3].app.enable = true
dtnsim.node[3].app.bundlesNumber = "4,1,3,5,4,3,3,2,5,5,2,1,5,5,5,1,3,5,3,5,2,2,5,5,5,5,1,1,2,2,1,1,1,1,4,4,5,3,4,3,3,3,5,1,2,5,5,2,2,2,5,4,4,3,3,4,4,1,3,3,5,4,2,3,5,4,1,4,2,2,1,3,1,3,2,4,1,2,3,4,3,3,4,1,5,1,3,3,5,1,5,2,2,2,3,2,4,5,4,4"
dtnsim.node[3].app.start = "46,87,97,35,73,74,20,98,100,30,37,92,88,37,20,73,99,30,63,36,100,100,17,58,72,56,91,8,26,18,8,12,86,60,60,82,97,91,3,96,19,5,57,10,4,58,71,32,5,17,28,69,5,84,39,99,100,22,91,64,27,87,73,93,49,36,17,74,54,17,35,32,42,89,92,76,15,36,32,91,61,79,7,43,18,79,60,14,95,66,40,23,60,96,2,42,37,51,21,17"
dtnsim.node[3].app.destinationEid = "2,2,2,2,2,2,2,2,2,2,2,2,2,2,2,2,2,2,2,2,2,2,2,2,2,2,2,4,4,4,4,4,4,4,4,4,4,4,4,4,4,4,4,4,4,4,4,4,4,4,4,4,4,4,4,4,4,4,4,4,4,4,4,4,4,4,4,4,4,4,4,4,4,4,4,4,4,4,4,4,4,4,4,4,4,4,4,4,4,4,4,4,4,4,4,4,4,4,4,4"
dtnsim.node[3].app.size = "200,50,100,500,500,100,500,100,100,200,200,50,200,50,200,200,100,200,500,100,100,100,200,50,100,100,200,200,100,100,50,200,200,100,500,200,200,100,200,100,100,200,200,500,100,500,200,500,200,200,100,100,200,50,200,200,50,100,50,500,200,50,200,50,50,500,200,50,500,500,200,200,500,500,50,500,500,50,500,500,500,200,100,500,200,50,100,50,500,500,50,200,500,200,100,500,100,500,500,50"
# Node 4 random conversational traffic
dtnsim.node[4].app.enable = true
dtnsim.node[4].app.bundlesNumber = "3,2,5,3,2,4,2,1,5,2,4,3,1,5,3,4,4,1,5,4,5,4,1,5,2,5,3,4,1,2,3,3,2,5,5,5,1,4,2,1,4,4,2,5,3,1,4,3,4,1,3,5,4,5,4,1,2,3,4,5,3,4,5,3,3,2,3,2,3,4,1,4,4,3,4,3,3,3,3,2,3,4,5,2,2,3,5,4,5,4,4,2,2,5,3,5,4,3,4,4"
dtnsim.node[4].app.start = "13,22,10,22,93,10,100,27,15,17,10,63,81,14,19,74,93,49,100,28,91,75,97,42,25,82,26,40,49,95,17,41,36,70,89,24,84,64,98,71,65,8,47,46,25,24,9,76,11,19,49,61,16,80,92,32,83,1,7,87,58,95,90,35,36,53,81,69,39,36,62,56,92,65,77,84,100,54,6,37,16,37,1,30,89,53,72,16,42,15,56,51,51,45,67,59,36,93,75,59"
dtnsim.node[4].app.destinationEid = "3,3,3,3,3,3,3,3,3,3,3,3,3,3,3,3,3,3,3,3,3,3,3,3,3,3,3,3,3,3,3,3,3,3,3,3,3,3,3,3,3,3,3,3,3,3,5,5,5,5,5,5,5,5,5,5,5,5,5,5,5,5,5,5,5,5,5,5,5,5,5,5,5,5,5,5,5,5,5,5,5,5,5,5,5,5,5,5,5,5,5,5,5,5,5,5,5,5,5,5"
dtnsim.node[4].app.size = "500,200,500,100,200,100,200,50,500,500,200,50,50,50,100,200,200,500,100,100,500,200,500,100,500,500,500,500,100,500,500,200,500,200,100,100,100,100,200,200,500,200,200,500,100,500,500,100,200,200,50,50,50,500,50,50,50,500,500,200,50,100,500,500,50,200,50,200,100,50,200,50,100,50,50,50,500,500,500,50,500,500,50,50,200,500,50,50,50,200,200,100,50,500,500,500,50,100,200,500"
# Node 5 random conversational traffic
dtnsim.node[5].app.enable = true
dtnsim.node[5].app.bundlesNumber = "2,4,5,5,1,2,2,2,4,4,3,2,5,1,4,5,5,4,4,5,5,3,4,1,5,5,5,1,2,5,3,5,3,3,2,4,2,1,4,3,1,3,5,5,2,2,2,5,4,4,4,2,2,3,4,4,5,2,1,5,1,4,2,4,1,3,4,4,4,2,1,1,5,4,2,1,2,1,1,4,4,4,4,5,2,3,4,1,4,2,5,2,3,2,1,4,5,2,2,5"
dtnsim.node[5].app.start = "15,15,59,65,84,87,4,11,66,100,37,75,44,43,66,69,88,100,61,8,19,40,5,38,96,61,75,43,20,59,57,55,52,69,63,41,98,80,94,47,46,50,43,19,65,95,34,15,39,87,32,68,78,24,75,39,79,38,60,99,53,25,38,37,33,93,68,21,67,53,38,63,29,84,100,90,19,17,23,84,14,36,82,1,62,92,62,65,38,14,93,81,75,12,34,60,19,5,51,48"
dtnsim.node[5].app.destinationEid = "4,4,4,4,4,4,4,4,4,4,4,4,4,4,4,4,4,4,4,4,4,4,4,4,4,4,4,4,4,4,4,4,4,4,4,4,4,4,6,6,6,6,6,6,6,6,6,6,6,6,6,6,6,6,6,6,6,6,6,6,6,6,6,6,6,6,6,6,6,6,6,6,6,6,6,6,6,6,6,6,6,6,6,6,6,6,6,6,6,6,6,6,6,6,6,6,6,6,6,6"
dtnsim.node[5].app.size = "500,50,500,200,500,200,100,500,500,200,500,200,100,100,50,100,200,200,500,500,500,100,50,100,200,100,200,200,100,200,500,500,50,50,200,200,50,100,500,50,50,500,50,50,200,200,500,200,100,200,200,200,200,50,500,200,500,100,50,100,500,200,50,200,100,100,500,100,50,200,500,200,500,50,50,200,500,200,100,50,200,200,200,500,200,100,200,100,200,200,200,100,100,100,500,200,200,100,200,200"
# Node 6 random conversational traffic
dtnsim.node[6].app.enable = true
dtnsim.node[6].app.bundlesNumber = "3,2,5,3,2,1,5,3,3,1,1,1,5,1,2,3,5,2,5,4,5,2,1,3,3,1,2,4,3,4,5,5,3,2,3,5,1,2,1,4,3,4,3,3,4,4,1,3,5,4,3,3,2,3,1,2,3,1,4,4,2,4,5,5,4,4,5,4,2,3,4,2,5,2,3,5,3,4,3,1,5,4,2,2,1,5,2,1,2,3,3,4,2,1,2,4,5,5,3,3"
dtnsim.node[6].app.start = "52,48,49,26,70,40,91,33,77,41,100,44,47,34,76,29,100,25,22,28,93,18,41,91,94,69,68,41,96,90,42,61,29,7,54,54,75,99,89,48,95,3,66,27,12,81,93,68,68,40,25,97,79,79,79,4,57,30,72,64,54,41,70,10,29,18,33,5,67,17,80,5,90,53,5,2,6,13,47,3,40,81,17,46,70,39,63,97,100,85,51,21,26,2,70,99,15,15,92,21"
dtnsim.node[6].app.destinationEid = "5,5,5,5,5,5,5,5,5,5,5,5,5,5,5,5,5,5,5,5,5,5,5,5,5,5,5,5,5,5,5,5,5,5,5,5,7,7,7,7,7,7,7,7,7,7,7,7,7,7,7,7,7,7,7,7,7,7,7,7,7,7,7,7,7,7,7,7,7,7,7,7,7,7,7,7,7,7,7,7,7,7,7,7,7,7,7,7,7,7,7,7,7,7,7,7,7,7,7,7"
dtnsim.node[6].app.size = "100,50,50,500,500,50,500,200,100,50,100,50,500,50,200,200,100,100,500,100,100,200,500,100,50,50,500,500,500,200,500,500,200,200,50,100,50,200,200,100,50,100,200,50,200,500,200,200,50,50,200,500,500,500,200,200,50,500,500,200,100,50,500,200,500,100,500,100,50,100,50,100,200,50,100,50,100,200,200,500,500,50,200,50,500,50,200,100,200,500,200,50,50,100,500,500,50,500,200,500"
# Node 7 random conversational traffic
dtnsim.node[7].app.enable = true
dtnsim.node[7].app.bundlesNumber = "4,3,4,2,5,2,1,2,1,2,4,4,3,4,3,5,3,3,2,4,4,2,3,2,2,3,1,1,4,5,2,2,2,5,1,2,5,4,1,4,2,3,1,2,1,5,5,4,3,1,4,3,2,3,1,3,2,5,4,2,5,5,2,2,4,5,3,2,5,4,3,4,3,3,3,3,5,2,3,2,4,1,5,5,2,2,5,4,4,1,3,1,5,2,4,5,4,4,5,4"
dtnsim.node[7].app.start = "100,54,96,6,94,26,87,60,36,73,74,12,38,19,36,7,74,89,96,15,19,9,42,27,52,41,95,54,26,27,4,71,100,17,17,97,18,62,52,84,43,57,34,21,85,5,21,28,43,9,63,57,26,15,90,49,65,100,92,3,12,79,30,78,15,44,90,53,35,20,26,81,83,8,42,86,61,27,7,67,91,47,28,29,26,12,58,89,13,82,37,96,95,15,27,31,50,58,98,31"
dtnsim.node[7].app.destinationEid = "6,6,6,6,6,6,6,6,6,6,6,6,6,6,6,6,6,6,6,6,6,6,6,6,6,6,6,6,6,6,6,6,6,6,6,6,8,8,8,8,8,8,8,8,8,8,8,8,8,8,8,8,8,8,8,8,8,8,8,8,8,8,8,8,8,8,8,8,8,8,8,8,8,8,8,8,8,8,8,8,8,8,8,8,8,8,8,8,8,8,8,8,8,8,8,8,8,8,8,8"
dtnsim.node[7].app.size = "100,200,50,100,50,200,100,50,500,500,500,50,50,500,50,100,100,500,100,50,100,500,100,100,50,500,100,100,50,500,100,50,500,50,500,50,200,500,200,50,500,200,200,500,500,50,50,50,100,200,50,50,50,50,200,50,200,200,500,500,200,500,50,100,100,100,50,200,50,100,100,200,200,500,50,500,50,500,500,100,100,50,50,500,100,200,500,50,50,500,100,100,100,500,50,500,200,500,50,50"
# Node 8 random conversational traffic
dtnsim.node[8].app.enable = true
dtnsim.node[8].app.bundlesNumber = "1,1,5,3,2,1,5,3,1,1,5,3,1,4,4,1,3,5,1,2,4,4,5,5,4,5,2,2,2,4,5,1,2,3,5,5,2,2,1,1,1,3,1,2,4,2,3,5,4,4,1,4,2,1,4,4,2,5,3,2,4,1,5,1,2,5,4,2,3,1,2,1,3,3,3,5,2,3,4,1,3,3,5,5,1,5,3,1,5,3,5,5,5,3,5,5,5,3,3,3"
dtnsim.node[8].app.start = "22,65,63,35,88,8,19,33,22,70,100,97,7,80,85,23,54,94,38,91,43,93,33,72,97,55,38,36,94,19,88,99,23,35,61,99,34,98,60,64,66,29,23,83,6,9,34,56,71,30,85,100,10,25,54,74,29,91,21,18,60,34,13,49,80,88,12,64,97,15,96,80,84,50,19,96,32,47,92,40,47,21,95,54,59,6,99,26,46,26,76,30,40,17,84,88,46,20,73,9"
dtnsim.node[8].app.destinationEid = "7,7,7,7,7,7,7,7,7,7,7,7,7,7,7,7,7,7,7,7,7,7,7,7,7,7,7,7,7,7,7,7,7,7,7,7,7,9,9,9,9,9,9,9,9,9,9,9,9,9,9,9,9,9,9,9,9,9,9,9,9,9,9,9,9,9,9,9,9,9,9,9,9,9,9,9,9,9,9,9,9,9,9,9,9,9,9,9,9,9,9,9,9,9,9,9,9,9,9,9"
dtnsim.node[8].app.size = "100,100,100,50,500,200,100,500,100,50,200,500,200,500,50,100,100,200,100,500,500,50,50,200,200,50,100,50,100,50,500,100,50,100,100,200,500,500,500,100,100,50,200,200,100,100,200,100,50,50,200,200,100,100,100,200,50,100,200,200,500,100,50,100,500,500,500,100,50,50,100,100,200,200,500,50,100,200,50,500,50,50,200,500,100,200,500,200,100,500,200,100,200,200,500,500,200,50,50,50"
# Node 9 random conversational traffic
dtnsim.node[9].app.enable = true
dtnsim.node[9].app.bundlesNumber = "2,5,4,2,2,3,1,2,1,2,1,4,1,4,2,5,2,1,3,2,5,1,2,1,3,1,5,2,2,1,1,1,1,3,5,4,1,4,5,5,5,3,1,4,1,3,3,1,1,4,5,5,2,5,3,4,5,3,4,4,1,3,2,4,1,2,4,5,2,4,5,4,3,4,3,2,1,5,3,2,3,2,1,1,2,3,4,5,1,4,5,3,3,4,2,3,2,5,3,4"
dtnsim.node[9].app.start = "73,75,84,18,42,60,86,100,20,33,75,95,27,20,41,57,13,98,98,90,92,54,100,36,57,95,42,56,25,98,14,100,50,34,96,51,23,74,15,18,72,8,40,49,18,47,12,75,78,48,76,54,74,14,95,66,16,68,84,83,87,46,11,46,14,92,3,23,17,32,42,75,16,66,42,57,4,86,80,29,95,73,98,71,8,83,87,10,52,91,68,50,3,95,82,57,1,44,96,40"
dtnsim.node[9].app.destinationEid = "8,8,8,8,8,8,8,8,8,8,8,8,8,8,8,8,8,8,8,8,8,8,8,8,8,8,8,8,8,8,8,8,8,8,8,8,8,8,8,10,10,10,10,10,10,10,10,10,10,10,10,10,10,10,10,10,10,10,10,10,10,10,10,10,10,10,10,10,10,10,10,10,10,10,10,10,10,10,10,10,10,10,10,10,10,10,10,10,10,10,10,10,10,10,10,10,10,10,10,10"
dtnsim.node[9].app.size = "50,500,200,200,200,100,100,500,200,200,200,500,100,100,500,500,50,50,100,200,100,100,50,200,200,100,100,200,50,500,50,100,50,200,50,50,50,100,100,100,50,200,500,200,200,50,100,500,500,200,100,50,500,50,100,100,500,500,100,100,500,200,500,100,50,500,50,500,50,200,50,50,500,50,50,100,200,100,100,200,200,100,200,50,500,50,500,100,100,50,500,200,500,100,50,100,100,200,200,100"
# Node 10 random conversational traffic
dtnsim.node[10].app.enable = true
dtnsim.node[10].app.bundlesNumber = "4,2,1,1,1,3,1,5,1,1,3,4,4,5,5,5,2,1,1,4,5,4,4,3,2,4,2,1,1,5,5,3,1,4,2,1,2,1,1,5,2,1,3,5,2,2,5,5,2,1,1,2,4,3,2,4,3,5,2,2,3,2,1,2,2,1,5,4,3,3,3,2,3,3,3,1,3,3,2,4,1,5,1,4,3,2,5,3,3,2,1,1,4,2,5,4,1,5,4,4"
dtnsim.node[10].app.start = "74,55,27,48,83,77,69,26,92,92,56,16,17,4,26,83,71,51,67,83,30,100,77,99,95,96,54,12,91,64,9,54,99,42,91,69,17,43,30,1,78,85,58,93,69,34,95,15,17,58,49,32,53,41,70,70,70,65,7,68,10,81,55,19,87,73,63,16,96,60,96,69,86,5,84,68,93,84,9,49,23,93,94,67,77,49,57,5,82,63,67,93,8,35,72,53,52,38,18,92"
dtnsim.node[10].app.destinationEid = "9,9,9,9,9,9,9,9,9,9,9,9,9,9,9,9,9,9,9,9,9,9,9,9,9,9,9,9,9,9,9,9,9,9,11,11,11,11,11,11,11,11,11,11,11,11,11,11,11,11,11,11,11,11,11,11,11,11,11,11,11,11,11,11,11,11,11,11,11,11,11,11,11,11,11,11,11,11,11,11,11,11,11,11,11,11,11,11,11,11,11,11,11,11,11,11,11,11,11,11"
dtnsim.node[10].app.size = "500,200,100,500,50,100,200,50,50,50,500,50,100,50,50,100,200,100,200,50,200,200,50,50,100,50,50,200,100,200,100,100,200,500,200,200,500,500,50,200,500,500,500,500,500,200,100,50,100,100,50,200,100,200,50,100,200,200,50,200,100,200,200,50,500,200,50,100,50,50,500,100,50,200,100,50,100,500,50,500,100,100,200,500,100,100,50,100,50,100,50,50,50,50,200,100,200,500,200,100"
# Node 11 random conversational traffic
dtnsim.node[11].app.enable = true
dtnsim.node[11].app.bundlesNumber = "2,4,1,2,3,3,1,5,1,4,1,3,5,1,3,1,2,4,3,5,2,2,5,1,4,4,4,2,2,2,4,3,1,3,4,2,2,2,1,5,2,2,3,5,5,2,4,3,4,3,4,2,1,5,3,5,1,2,2,1,2,4,1,4,4,1,4,1,2,2,1,2,4,5,2,3,2,4,1,2,2,4,4,3,3,3,2,1,3,3,1,1,2,4,4,2,5,1,4,5"
dtnsim.node[11].app.start = "25,44,36,8,86,93,59,41,99,20,60,57,38,60,74,79,72,70,20,87,61,89,68,21,98,70,71,92,75,13,28,94,100,76,78,53,65,6,83,71,70,97,61,54,46,20,28,17,69,95,32,66,70,88,77,2,39,8,77,1,90,86,5,61,55,73,4,35,40,27,22,5,88,21,75,34,27,32,30,15,92,79,70,98,20,4,44,21,94,79,33,8,63,81,96,41,16,81,52,82"
dtnsim.node[11].app.destinationEid = "10,10,10,10,10,10,10,10,10,10,10,10,10,10,10,10,10,10,10,10,10,10,10,10,10,10,10,10,10,10,10,10,10,10,10,10,10,10,10,10,10,10,10,10,10,10,12,12,12,12,12,12,12,12,12,12,12,12,12,12,12,12,12,12,12,12,12,12,12,12,12,12,12,12,12,12,12,12,12,12,12,12,12,12,12,12,12,12,12,12,12,12,12,12,12,12,12,12,12,12"
dtnsim.node[11].app.size = "50,100,50,100,500,200,100,50,50,200,200,50,200,50,200,200,100,100,100,100,500,100,100,100,200,500,500,50,50,100,500,50,200,50,200,100,50,50,50,50,500,500,500,200,100,50,500,500,100,500,500,500,200,50,100,200,50,500,50,200,200,200,50,500,50,50,500,50,100,200,50,50,200,50,500,100,200,200,50,100,100,100,500,200,500,200,200,500,50,100,200,200,500,50,50,50,100,100,100,500"
# Node 12 random conversational traffic
dtnsim.node[12].app.enable = true
dtnsim.node[12].app.bundlesNumber = "2,1,3,3,1,5,4,1,4,3,5,2,5,2,1,4,5,3,5,3,1,1,2,4,1,3,3,5,3,3,3,2,1,5,4,5,1,3,1,2,3,3,4,4,1,5,2,3,3,4,3,4,3,2,4,3,4,5,2,2,4,3,3,1,2,1,2,5,3,5,5,5,5,1,4,3,5,4,2,1,2,4,1,4,1,4,1,5,4,5,2,5,2,4,5,3,1,1,1,4"
dtnsim.node[12].app.start = "37,23,74,98,33,71,86,79,95,87,8,69,38,43,29,9,90,29,44,34,19,94,84,100,28,11,48,24,98,84,100,26,91,60,92,72,15,78,77,59,14,38,40,34,83,36,99,8,69,28,29,47,52,83,2,90,76,31,65,91,6,28,46,43,82,55,26,13,47,56,88,40,64,14,32,78,22,34,85,9,80,81,12,16,20,89,52,67,42,24,96,18,3,85,26,97,48,46,41,64"
dtnsim.node[12].app.destinationEid = "11,11,11,11,11,11,11,11,11,11,11,11,11,11,11,11,11,11,11,11,11,11,11,11,11,11,11,11,11,11,11,11,11,11,11,13,13,13,13,13,13,13,13,13,13,13,13,13,13,13,13,13,13,13,13,13,13,13,13,13,13,13,13,13,13,13,13,13,13,13,13,13,13,13,13,13,13,13,13,13,13,13,13,13,13,13,13,13,13,13,13,13,13,13,13,13,13,13,13,13"
dtnsim.node[12].app.size = "50,500,100,50,500,500,50,50,50,200,500,200,500,500,200,200,500,500,100,500,200,50,500,100,200,200,200,100,500,200,200,200,50,50,100,500,50,200,50,100,100,500,100,50,50,500,100,500,50,200,200,500,100,100,500,200,500,500,100,200,50,200,50,50,200,100,200,100,200,500,50,50,500,100,200,500,200,50,200,100,500,100,200,100,500,500,50,200,100,500,50,50,50,100,200,100,50,200,500,200"
# Node 13 random conversational traffic
dtnsim.node[13].app.enable = true
dtnsim.node[13].app.bundlesNumber = "1,4,2,5,4,3,2,5,5,1,5,1,3,1,4,4,1,4,1,4,5,3,1,2,5,1,4,1,1,4,2,3,4,3,2,3,1,5,2,1,4,5,2,3,4,1,5,2,4,2,3,3,5,1,5,5,4,4,5,4,5,3,5,5,2,5,3,2,4,3,1,1,2,3,5,4,2,3,3,3,2,2,3,3,1,5,4,5,3,4,5,1,5,1,1,2,3,1,2,2"
dtnsim.node[13].app.start = "75,78,67,24,46,35,92,45,100,70,31,60,84,37,67,100,36,47,57,35,57,63,91,47,34,38,11,87,25,21,57,70,98,26,32,56,69,29,2,21,28,63,39,41,3,28,89,55,78,100,83,20,67,90,16,98,5,32,42,34,40,66,9,48,53,2,55,23,68,44,93,71,67,90,81,33,15,36,25,79,9,61,33,92,7,50,6,48,25,95,38,7,39,47,24,70,31,31,19,26"
dtnsim.node[13].app.destinationEid = "12,12,12,12,12,12,12,12,12,12,12,12,12,12,12,12,12,12,12,12,12,12,12,12,12,12,12,12,12,12,12,12,12,12,12,12,12,14,14,14,14,14,14,14,14,14,14,14,14,14,14,14,14,14,14,14,14,14,14,14,14,14,14,14,14,14,14,14,14,14,14,14,14,14,14,14,14,14,14,14,14,14,14,14,14,14,14,14,14,14,14,14,14,14,14,14,14,14,14,14"
dtnsim.node[13].app.size = "200,50,50,200,500,200,500,100,100,100,200,500,500,500,500,500,500,200,200,200,200,100,50,200,100,500,500,50,100,100,200,50,50,100,50,200,100,100,100,500,50,100,100,200,500,100,500,500,200,200,100,100,50,50,200,100,200,500,500,50,500,200,200,100,200,50,100,50,50,500,500,50,100,50,100,500,500,200,50,50,100,500,50,500,500,100,100,100,50,200,200,50,100,100,200,50,500,500,50,200"
# Node 14 random conversational traffic
dtnsim.node[14].app.enable = true
dtnsim.node[14].app.bundlesNumber = "5,2,5,2,5,1,3,1,4,1,1,1,2,4,3,1,3,1,5,1,5,1,4,2,2,4,2,1,5,1,3,2,4,5,2,5,1,1,4,1,3,4,3,1,4,1,5,1,3,4,4,1,4,4,3,4,5,3,1,4,3,1,1,4,5,5,5,2,1,5,1,3,1,4,4,4,5,3,4,4,4,5,5,4,2,2,4,2,3,5,3,1,5,5,2,4,3,2,2,4"
dtnsim.node[14].app.start = "11,30,67,37,80,100,90,24,77,94,41,40,46,69,16,55,57,27,94,99,83,43,23,38,27,88,70,43,97,28,15,50,32,75,35,24,32,49,39,84,27,17,41,78,60,54,59,77,45,66,28,64,24,81,39,82,37,18,80,24,11,15,26,51,93,74,40,12,92,51,58,49,63,15,90,23,71,32,42,55,65,75,63,4,88,15,10,12,33,2,65,24,15,76,92,33,76,11,87,80"
dtnsim.node[14].app.destinationEid = "13,13,13,13,13,13,13,13,13,13,13,13,13,13,13,13,13,13,13,13,13,13,13,13,13,13,13,13,13,13,13,13,13,13,13,13,13,15,15,15,15,15,15,15,15,15,15,15,15,15,15,15,15,15,15,15,15,15,15,15,15,15,15,15,15,15,15,15,15,15,15,15,15,15,15,15,15,15,15,15,15,15,15,15,15,15,15,15,15,15,15,15,15,15,15,15,15,15,15,15"
dtnsim.node[14].app.size = "500,100,200,100,50,100,500,500,200,500,50,200,50,200,500,100,100,50,100,50,50,100,500,100,500,500,100,200,50,200,500,200,50,50,500,500,50,100,200,200,500,50,200,500,200,200,100,100,50,50,200,500,500,50,200,200,100,100,500,200,100,200,500,200,200,500,500,50,50,500,200,200,200,100,50,50,200,200,500,50,200,50,200,100,200,500,500,500,50,200,50,100,500,100,50,50,100,500,100,50"
# Node 15 random conversational traffic
dtnsim.node[15].app.enable = true
dtnsim.node[15].app.bundlesNumber = "1,2,3,3,4,5,3,1,1,3,5,2,5,5,3,4,1,4,4,3,4,3,2,4,4,5,4,3,4,5,1,3,1,5,5,1,5,1,2,1,1,2,5,2,4,1,1,1,1,3,4,4,5,1,2,5,1,4,3,2,4,4,1,5,1,2,2,5,1,4,3,3,2,4,2,4,1,2,5,5,4,1,3,3,1,5,2,4,4,4,1,1,5,2,4,3,3,4,2,3"
dtnsim.node[15].app.start = "47,86,27,45,83,70,63,83,73,83,43,81,26,16,56,100,78,46,62,54,68,95,25,45,62,71,13,98,14,42,5,75,81,96,86,12,89,44,25,6,36,21,66,84,55,83,34,95,57,45,91,89,71,42,20,86,3,35,89,25,18,61,3,45,12,74,65,17,95,98,58,85,13,43,38,26,63,6,62,88,10,16,76,40,28,98,69,54,5,59,17,33,100,9,83,29,66,41,67,58"
dtnsim.node[15].app.destinationEid = "14,14,14,14,14,14,14,14,14,14,14,14,14,14,14,14,14,14,14,14,14,14,14,14,14,14,14,14,14,14,14,14,14,14,14,14,14,16,16,16,16,16,16,16,16,16,16,16,16,16,16,16,16,16,16,16,16,16,16,16,16,16,16,16,16,16,16,16,16,16,16,16,16,16,16,16,16,16,16,16,16,16,16,16,16,16,16,16,16,16,16,16,16,16,16,16,16,16,16,16"
dtnsim.node[15].app.size = "200,50,500,50,500,100,100,100,100,200,50,50,100,200,50,100,500,200,50,200,100,100,200,500,100,500,500,200,200,100,500,200,100,200,50,100,100,100,500,100,100,100,100,500,100,50,100,200,500,50,200,500,100,200,500,200,100,100,50,100,50,50,500,500,500,200,500,50,500,200,500,100,50,50,100,200,200,100,100,100,50,500,500,100,500,50,500,100,50,100,500,50,50,50,500,100,50,50,500,50"
# Node 16 random conversational traffic
dtnsim.node[16].app.enable = true
dtnsim.node[16].app.bundlesNumber = "2,5,1,4,2,5,1,2,2,5,3,1,5,2,5,5,2,2,4,4,2,4,4,4,1,4,3,5,3,1,2,5,5,1,3,3,5,3,4,2,1,3,4,5,2,3,5,5,1,1,5,5,4,2,5,3,2,2,1,3,4,1,3,4,3,1,2,3,4,1,2,1,5,2,3,4,1,2,5,3,3,1,5,1,1,5,3,2,5,5,2,3,1,1,4,3,1,5,4,4"
dtnsim.node[16].app.start = "53,27,14,38,31,73,91,61,86,35,97,66,48,100,43,23,9,34,26,66,51,21,78,23,97,100,66,91,46,40,36,67,68,89,13,100,77,60,35,84,30,71,47,73,35,25,27,3,82,50,69,76,18,82,55,78,57,69,48,51,71,53,91,93,59,2,25,31,83,99,32,24,55,58,91,77,9,95,86,44,98,70,40,70,61,47,86,15,46,44,84,58,72,16,39,50,25,19,73,27"
dtnsim.node[16].app.destinationEid = "15,15,15,15,15,15,15,15,15,15,15,15,15,15,15,15,15,15,15,15,15,15,15,15,15,15,15,15,15,15,15,15,15,15,15,15,15,15,15,15,15,15,15,15,17,17,17,17,17,17,17,17,17,17,17,17,17,17,17,17,17,17,17,17,17,17,17,17,17,17,17,17,17,17,17,17,17,17,17,17,17,17,17,17,17,17,17,17,17,17,17,17,17,17,17,17,17,17,17,17"
dtnsim.node[16].app.size = "50,100,100,100,500,200,50,100,500,200,500,100,50,100,200,200,100,500,500,200,100,50,500,500,50,100,500,50,200,50,500,500,500,50,100,200,500,500,500,500,500,500,200,500,500,100,100,500,200,50,100,50,500,50,100,200,50,100,200,50,50,50,200,50,200,500,200,500,200,200,100,200,50,200,50,200,100,500,200,200,50,100,200,100,50,50,50,500,100,100,100,100,50,100,200,500,500,500,100,50"
# Node 17 random conversational traffic
dtnsim.node[17].app.enable = true
dtnsim.node[17].app.bundlesNumber = "3,4,3,3,2,5,1,2,2,1,5,2,5,2,2,5,3,1,4,2,4,3,5,3,3,3,3,5,5,4,3,1,1,3,5,2,5,3,3,3,4,3,4,5,3,1,3,4,5,1,3,1,1,1,4,1,5,2,5,1,5,4,2,4,3,4,3,2,4,5,3,1,5,2,1,2,2,2,5,1,4,1,3,5,4,3,5,1,5,2,4,4,4,4,4,1,3,1,2,1"
dtnsim.node[17].app.start = "37,4,71,24,92,56,86,66,78,59,96,6,38,100,36,68,95,83,11,88,46,45,78,48,91,22,47,25,44,58,28,83,97,39,25,83,73,86,61,99,43,52,42,50,100,98,19,77,91,17,58,26,59,95,17,24,21,44,6,45,97,21,15,63,94,84,53,5,67,74,88,42,94,49,38,84,64,74,48,56,89,86,25,38,98,87,51,83,79,15,12,68,6,69,29,65,66,1,78,25"
dtnsim.node[17].app.destinationEid = "16,16,16,16,16,16,16,16,16,16,16,16,16,16,16,16,16,16,16,16,16,16,16,16,16,16,16,16,16,16,16,16,18,18,18,18,18,18,18,18,18,18,18,18,18,18,18,18,18,18,18,18,18,18,18,18,18,18,18,18,18,18,18,18,18,18,18,18,18,18,18,18,18,18,18,18,18,18,18,18,18,18,18,18,18,18,18,18,18,18,18,18,18,18,18,18,18,18,18,18"
dtnsim.node[17].app.size = "50,100,200,500,50,200,50,50,100,200,500,200,50,100,100,100,500,50,500,500,500,200,50,500,50,50,500,50,100,500,100,200,100,200,200,200,50,200,100,100,100,50,100,500,100,500,50,100,200,50,500,200,500,200,500,200,500,500,100,50,500,100,100,200,200,500,200,100,100,50,50,200,50,50,50,50,500,500,500,200,50,50,200,500,500,50,500,100,200,500,500,50,500,200,200,100,200,100,50,500"
# Node 18 random conversational traffic
dtnsim.node[18].app.enable = true
dtnsim.node[18].app.bundlesNumber = "5,3,3,5,2,2,5,5,4,5,5,3,4,1,3,4,5,1,2,1,2,4,1,1,3,2,4,1,2,2,3,1,2,3,2,2,2,2,1,3,1,2,3,5,3,5,4,4,5,3,4,3,2,4,5,4,2,5,2,3,2,1,2,4,4,3,3,2,3,4,5,1,4,3,3,1,1,3,1,1,4,4,4,2,5,3,1,3,1,4,5,3,3,5,5,1,2,5,5,4"
dtnsim.node[18].app.start = "100,42,31,90,100,47,51,100,100,22,86,18,30,100,23,26,27,11,54,66,99,60,78,89,46,99,88,80,54,61,95,35,99,55,20,74,74,74,29,83,67,100,58,58,5,28,64,45,56,92,38,97,76,60,99,33,45,52,69,70,47,3,64,49,76,31,46,16,22,44,71,71,18,36,17,57,92,97,43,68,81,87,42,12,99,46,73,68,80,4,89,78,25,45,35,14,84,86,79,56"
dtnsim.node[18].app.destinationEid = "17,17,17,17,17,17,17,17,17,17,17,17,17,17,17,17,17,17,17,17,17,17,17,17,17,17,17,17,17,17,17,17,17,17,17,17,17,17,17,19,19,19,19,19,19,19,19,19,19,19,19,19,19,19,19,19,19,19,19,19,19,19,19,19,19,19,19,19,19,19,19,19,19,19,19,19,19,19,19,19,19,19,19,19,19,19,19,19,19,19,19,19,19,19,19,19,19,19,19,19"
dtnsim.node[18].app.size = "100,200,100,200,100,50,200,50,200,500,50,100,200,100,100,100,50,100,100,500,500,50,50,50,100,500,100,50,200,50,100,100,200,100,50,200,100,50,100,50,50,50,100,100,50,100,200,50,100,50,200,50,100,200,50,200,200,100,500,50,200,200,500,100,100,200,200,500,200,50,100,200,50,500,500,100,200,100,100,50,100,100,100,50,500,100,100,50,100,500,500,50,50,500,500,50,200,200,500,50"
# Node 19 random conversational traffic
dtnsim.node[19].app.enable = true
dtnsim.node[19].app.bundlesNumber = "3,2,2,5,3,3,1,5,1,3,2,4,4,2,5,4,5,4,4,4,2,5,2,2,3,4,5,2,3,4,4,3,1,5,4,4,3,1,2,1,1,5,5,4,1,4,3,2,1,2,3,1,4,1,4,4,5,5,2,4,3,1,4,1,3,5,2,3,1,3,5,2,2,1,4,5,2,2,5,2,5,3,2,2,1,4,1,2,2,2,5,1,4,3,3,5,5,1,3,1"
dtnsim.node[19].app.start = "71,100,63,50,100,40,99,83,66,55,52,8,86,39,52,80,24,26,99,50,71,89,43,18,100,75,85,51,41,87,87,85,59,44,89,20,7,85,38,63,12,38,81,24,100,14,71,27,70,18,76,85,1,53,88,3,58,18,16,68,28,65,87,48,9,89,13,2,98,11,54,23,96,24,22,46,48,48,17,34,26,18,67,94,16,77,69,60,76,49,29,91,57,93,96,27,67,7,17,31"
dtnsim.node[19].app.destinationEid = "18,18,18,18,18,18,18,18,18,18,18,18,18,18,18,18,18,18,18,18,18,18,18,18,18,18,18,18,18,18,18,18,18,20,20,20,20,20,20,20,20,20,20,20,20,20,20,20,20,20,20,20,20,20,20,20,20,20,20,20,20,20,20,20,20,20,20,20,20,20,20,20,20,20,20,20,20,20,20,20,20,20,20,20,20,20,20,20,20,20,20,20,20,20,20,20,20,20,20,20"
dtnsim.node[19].app.size = "200,200,200,100,500,50,200,500,50,50,100,500,100,500,50,50,50,500,500,500,500,500,200,200,500,100,100,50,100,50,500,500,200,100,200,100,500,100,500,50,50,200,500,500,50,50,100,200,50,500,200,100,100,100,50,50,500,500,50,500,200,500,50,500,200,100,500,500,50,100,500,200,200,500,50,50,200,200,100,50,500,200,100,200,500,500,100,500,100,500,100,50,100,200,200,50,100,200,50,100"
# Node 20 random conversational traffic
dtnsim.node[20].app.enable = true
dtnsim.node[20].app.bundlesNumber = "4,5,1,3,1,3,3,4,5,4,5,2,3,2,1,2,4,2,5,2,2,3,1,1,4,3,5,5,5,4,5,2,3,2,2,5,4,4,5,4,1,4,4,2,1,2,2,4,3,1,3,1,4,3,4,1,1,5,2,2,5,4,2,1,2,2,2,5,4,3,5,3,4,5,4,4,3,5,5,4,5,1,5,1,4,1,3,1,1,4,2,4,1,2,3,5,4,2,5,2"
dtnsim.node[20].app.start = "98,25,46,68,15,83,100,76,82,94,61,93,68,19,25,69,35,52,91,6,100,12,63,33,31,49,57,25,44,96,84,62,86,32,92,99,97,35,69,35,70,23,79,73,55,46,92,5,94,89,59,31,81,39,45,68,17,18,24,79,10,55,84,96,96,2,55,74,43,80,98,44,21,6,33,58,100,40,28,92,35,100,14,63,75,95,81,41,44,22,16,93,59,77,69,61,69,20,25,27"
dtnsim.node[20].app.destinationEid = "19,19,19,19,19,19,19,19,19,19,19,19,19,19,19,19,19,19,19,19,19,19,19,19,19,19,19,19,19,19,19,19,19,19,19,19,19,19,19,19,21,21,21,21,21,21,21,21,21,21,21,21,21,21,21,21,21,21,21,21,21,21,21,21,21,21,21,21,21,21,21,21,21,21,21,21,21,21,21,21,21,21,21,21,21,21,21,21,21,21,21,21,21,21,21,21,21,21,21,21"
dtnsim.node[20].app.size = "500,200,100,500,100,50,50,200,200,500,50,500,50,200,500,500,50,100,100,200,100,200,100,500,200,500,500,50,200,200,200,50,200,500,100,50,500,100,100,200,50,50,500,500,200,100,100,100,100,200,100,50,100,100,50,100,50,200,500,100,500,50,200,50,500,100,100,500,500,100,500,200,200,50,500,200,100,100,100,500,200,100,100,500,500,500,200,50,200,50,500,200,200,500,50,500,100,500,50,500"
# Node 21 random conversational traffic
dtnsim.node[21].app.enable = true
dtnsim.node[21].app.bundlesNumber = "4,4,5,2,1,3,4,1,1,5,3,1,4,5,2,4,4,3,3,5,4,4,3,3,2,2,2,2,4,5,1,4,1,1,3,3,2,4,5,4,3,3,4,3,3,2,4,2,3,2,4,2,3,4,1,5,4,2,4,1,5,1,3,1,4,2,3,1,4,1,5,1,3,2,1,1,4,4,4,4,5,5,1,2,3,1,1,3,5,5,3,4,2,1,5,2,5,2,3,1"
dtnsim.node[21].app.start = "78,26,85,75,64,94,99,62,34,88,49,47,72,29,81,7,58,82,53,84,100,47,28,12,64,100,41,100,19,71,82,99,90,50,30,62,26,30,23,49,65,51,13,19,4,96,10,17,42,85,23,49,82,62,64,49,80,84,38,50,58,54,75,15,31,80,53,76,33,58,91,61,76,37,99,66,33,89,10,59,70,15,54,20,37,16,64,94,32,62,40,99,82,47,37,99,29,79,97,94"
dtnsim.node[21].app.destinationEid = "20,20,20,20,20,20,20,20,20,20,20,20,20,20,20,20,20,20,20,20,20,20,20,20,20,20,20,20,20,20,20,20,20,20,20,20,20,20,22,22,22,22,22,22,22,22,22,22,22,22,22,22,22,22,22,22,22,22,22,22,22,22,22,22,22,22,22,22,22,22,22,22,22,22,22,22,22,22,22,22,22,22,22,22,22,22,22,22,22,22,22,22,22,22,22,22,22,22,22,22"
dtnsim.node[21].app.size = "100,50,50,100,200,500,200,100,100,200,200,100,500,200,50,500,500,200,500,100,500,50,50,50,100,500,500,500,50,200,200,200,200,500,100,200,50,50,200,500,500,500,100,200,200,200,50,200,100,500,200,200,100,500,50,100,100,100,50,200,500,100,200,50,200,200,200,50,500,50,50,50,500,200,500,50,500,200,100,50,500,100,100,200,100,500,100,50,100,100,100,50,100,200,100,200,200,50,200,50"
# Node 22 random conversational traffic
dtnsim.node[22].app.enable = true
dtnsim.node[22].app.bundlesNumber = "1,1,5,5,2,4,2,4,3,1,1,2,2,1,5,4,5,4,5,4,2,5,1,4,4,3,3,5,1,3,5,4,5,4,2,4,3,3,3,3,3,3,3,3,4,5,5,2,1,1,4,1,4,5,1,4,4,4,3,1,3,2,4,1,3,1,2,4,5,1,2,2,5,5,4,2,5,4,4,5,3,2,2,1,2,3,5,1,5,1,5,1,5,4,3,5,4,2,1,4"
dtnsim.node[22].app.start = "26,55,67,52,16,22,8,50,89,52,84,69,53,87,58,67,56,78,84,35,92,62,44,100,42,17,69,78,62,25,47,38,46,89,48,41,37,80,90,63,75,20,4,34,11,23,94,85,99,10,22,50,29,94,60,69,5,49,90,62,20,46,98,17,18,59,23,2,73,9,79,61,46,94,33,40,80,56,49,2,54,82,5,83,35,11,84,65,97,80,68,12,94,11,60,99,24,12,19,22"
dtnsim.node[22].app.destinationEid = "21,21,21,21,21,21,21,21,21,21,21,21,21,21,21,21,21,21,21,21,21,21,21,21,21,21,21,21,21,21,21,21,21,21,21,21,21,21,23,23,23,23,23,23,23,23,23,23,23,23,23,23,23,23,23,23,23,23,23,23,23,23,23,23,23,23,23,23,23,23,23,23,23,23,23,23,23,23,23,23,23,23,23,23,23,23,23,23,23,23,23,23,23,23,23,23,23,23,23,23"