[General]
network = src.dtnsim										
repeat = 1
allow-object-stealing-on-deletion = true

# Simulation end time
sim-time-limit = 84600s

# Nodes quantity (identifiers (EiDs) matches their index, EiD=0 is ignored)			
dtnsim.nodesNumber = 120
dtnsim.node[*].icon = "satellite"

# Nodes's failure rates
dtnsim.node[*].fault.enable = true
dtnsim.node[*].fault.meanTTF = 190s
dtnsim.node[*].fault.meanTTR = 10s

# Mobility
dtnsim.node[*].hasMobility = true
dtnsim.node[*].norad.satIndex = parentIndex()
dtnsim.node[*].norad.satName = "sat"
**.updateInterval = 20s
**.numOfSats = 120
**.satPerPlane = 10
**.altitude = 540
**.planes = 12
**.phaseOffset = 7

dtnsim.node[*].dtn.routing = "antop"
dtnsim.node[*].dtn.printRoutingDebug = true

# --- Random Traffic Configuration ---
# Node 1 random traffic
dtnsim.node[1].app.enable = true
dtnsim.node[1].app.bundlesNumber = "17,8,9,24,25,16,1"
dtnsim.node[1].app.start = "8,12,58,58,94,36,42"
dtnsim.node[1].app.destinationEid = "37,45,37,6,4,13,45"
dtnsim.node[1].app.size = "50,100,100,500,200,100,500"
# Node 2 random traffic
dtnsim.node[2].app.enable = true
dtnsim.node[2].app.bundlesNumber = "15,11,6,5,7,21,11,5,7,11,1"
dtnsim.node[2].app.start = "70,9,40,77,8,76,75,25,39,65,24"
dtnsim.node[2].app.destinationEid = "97,100,49,109,26,9,96,46,104,87,52"
dtnsim.node[2].app.size = "200,50,50,100,100,50,500,200,200,500,50"
# Node 3 random traffic
dtnsim.node[3].app.enable = true
dtnsim.node[3].app.bundlesNumber = "15,4,7,12,20,14,16,5,5,2"
dtnsim.node[3].app.start = "54,83,45,84,25,13,84,53,21,19"
dtnsim.node[3].app.destinationEid = "112,60,61,78,96,15,86,21,87,55"
dtnsim.node[3].app.size = "200,500,200,50,200,200,50,50,100,200"
# Node 4 random traffic
dtnsim.node[4].app.enable = true
dtnsim.node[4].app.bundlesNumber = "11,15,6,12,5,18,13,1,1,11,6,1"
dtnsim.node[4].app.start = "51,62,73,80,33,83,51,74,22,40,98,53"
dtnsim.node[4].app.destinationEid = "108,3,113,1,73,120,2,115,101,68,67,7"
dtnsim.node[4].app.size = "500,50,500,500,50,500,200,50,100,50,500,100"
# Node 5 random traffic
dtnsim.node[5].app.enable = true
dtnsim.node[5].app.bundlesNumber = "5,4,18,18,24,25,6"
dtnsim.node[5].app.start = "13,21,21,76,8,69,6"
dtnsim.node[5].app.destinationEid = "119,73,96,28,31,42,19"
dtnsim.node[5].app.size = "50,100,500,50,200,200,100"
# Node 6 random traffic
dtnsim.node[6].app.enable = true
dtnsim.node[6].app.bundlesNumber = "1,2,6,25,25,19,14,7,1"
dtnsim.node[6].app.start = "46,36,90,75,71,46,22,51,43"
dtnsim.node[6].app.destinationEid = "96,66,28,38,5,120,70,32,108"
dtnsim.node[6].app.size = "500,100,200,200,200,50,500,200,500"
# Node 7 random traffic
dtnsim.node[7].app.enable = true
dtnsim.node[7].app.bundlesNumber = "24,5,12,22,11,19,7"
dtnsim.node[7].app.start = "7,67,70,16,31,25,54"
dtnsim.node[7].app.destinationEid = "108,91,117,11,95,26,22"
dtnsim.node[7].app.size = "200,500,500,500,500,100,200"
# Node 8 random traffic
dtnsim.node[8].app.enable = true
dtnsim.node[8].app.bundlesNumber = "8,17,7,4,16,5,4,18,5,14,1,1"
dtnsim.node[8].app.start = "34,88,99,69,100,70,68,71,57,40,85,74"
dtnsim.node[8].app.destinationEid = "3,62,75,84,43,19,59,40,51,71,105,94"
dtnsim.node[8].app.size = "50,200,200,100,50,100,100,50,200,200,100,200"
# Node 9 random traffic
dtnsim.node[9].app.enable = true
dtnsim.node[9].app.bundlesNumber = "25,22,15,15,23"
dtnsim.node[9].app.start = "56,49,46,79,62"
dtnsim.node[9].app.destinationEid = "68,16,83,31,38"
dtnsim.node[9].app.size = "200,50,50,500,500"
# Node 10 random traffic
dtnsim.node[10].app.enable = true
dtnsim.node[10].app.bundlesNumber = "22,23,15,4,19,16,1"
dtnsim.node[10].app.start = "89,94,71,10,21,10,79"
dtnsim.node[10].app.destinationEid = "45,55,115,80,109,12,28"
dtnsim.node[10].app.size = "200,500,100,500,100,200,200"
# Node 11 random traffic
dtnsim.node[11].app.enable = true
dtnsim.node[11].app.bundlesNumber = "19,21,15,2,16,22,2,3"
dtnsim.node[11].app.start = "61,86,51,71,35,12,81,58"
dtnsim.node[11].app.destinationEid = "20,87,112,31,17,92,20,107"
dtnsim.node[11].app.size = "100,50,50,500,50,200,500,100"
# Node 12 random traffic
dtnsim.node[12].app.enable = true
dtnsim.node[12].app.bundlesNumber = "2,10,7,8,18,24,19,6,3,3"
dtnsim.node[12].app.start = "50,60,91,33,32,67,47,39,64,95"
dtnsim.node[12].app.destinationEid = "91,77,72,70,49,41,54,88,28,7"
dtnsim.node[12].app.size = "200,100,100,500,200,100,50,200,500,200"
# Node 13 random traffic
dtnsim.node[13].app.enable = true
dtnsim.node[13].app.bundlesNumber = "20,12,8,21,11,19,7,2"
dtnsim.node[13].app.start = "39,81,88,44,51,43,67,46"
dtnsim.node[13].app.destinationEid = "7,73,9,84,47,119,52,97"
dtnsim.node[13].app.size = "50,500,100,200,200,100,100,200"
# Node 14 random traffic
dtnsim.node[14].app.enable = true
dtnsim.node[14].app.bundlesNumber = "10,4,21,7,23,2,19,7,6,1"
dtnsim.node[14].app.start = "40,38,29,76,14,19,85,100,56,96"
dtnsim.node[14].app.destinationEid = "35,67,85,10,87,84,45,82,10,69"
dtnsim.node[14].app.size = "100,50,500,100,500,500,50,50,50,200"
# Node 15 random traffic
dtnsim.node[15].app.enable = true
dtnsim.node[15].app.bundlesNumber = "22,1,19,24,18,10,1,3,1,1"
dtnsim.node[15].app.start = "21,37,35,56,16,20,41,84,68,73"
dtnsim.node[15].app.destinationEid = "53,31,18,41,59,9,97,8,19,37"
dtnsim.node[15].app.size = "500,50,50,100,50,500,200,200,100,200"
# Node 16 random traffic
dtnsim.node[16].app.enable = true
dtnsim.node[16].app.bundlesNumber = "11,14,24,8,6,24,7,2,3,1"
dtnsim.node[16].app.start = "83,47,60,54,20,67,5,66,33,6"
dtnsim.node[16].app.destinationEid = "95,83,8,96,9,85,84,58,11,69"
dtnsim.node[16].app.size = "50,50,100,200,100,500,200,500,50,200"
# Node 17 random traffic
dtnsim.node[17].app.enable = true
dtnsim.node[17].app.bundlesNumber = "24,9,7,10,24,9,11,4,2"
dtnsim.node[17].app.start = "38,72,32,27,69,74,68,88,93"
dtnsim.node[17].app.destinationEid = "15,93,108,28,28,115,75,24,110"
dtnsim.node[17].app.size = "50,50,50,500,500,500,100,200,500"
# Node 18 random traffic
dtnsim.node[18].app.enable = true
dtnsim.node[18].app.bundlesNumber = "19,20,5,24,11,3,2,10,6"
dtnsim.node[18].app.start = "2,63,37,32,61,99,9,36,97"
dtnsim.node[18].app.destinationEid = "72,78,52,4,6,87,90,5,84"
dtnsim.node[18].app.size = "100,100,500,500,100,100,100,100,500"
# Node 19 random traffic
dtnsim.node[19].app.enable = true
dtnsim.node[19].app.bundlesNumber = "6,25,25,13,17,14"
dtnsim.node[19].app.start = "7,4,97,54,75,77"
dtnsim.node[19].app.destinationEid = "59,20,110,116,73,117"
dtnsim.node[19].app.size = "500,200,500,200,500,500"
# Node 20 random traffic
dtnsim.node[20].app.enable = true
dtnsim.node[20].app.bundlesNumber = "20,16,22,12,20,10"
dtnsim.node[20].app.start = "15,22,51,67,64,24"
dtnsim.node[20].app.destinationEid = "33,114,8,10,44,21"
dtnsim.node[20].app.size = "500,100,200,50,500,50"
# Node 21 random traffic
dtnsim.node[21].app.enable = true
dtnsim.node[21].app.bundlesNumber = "13,11,7,5,10,11,21,16,6"
dtnsim.node[21].app.start = "73,28,92,45,99,6,52,45,60"
dtnsim.node[21].app.destinationEid = "3,74,27,56,112,62,16,105,90"
dtnsim.node[21].app.size = "50,200,50,200,50,500,50,100,500"
# Node 22 random traffic
dtnsim.node[22].app.enable = true
dtnsim.node[22].app.bundlesNumber = "15,7,24,1,18,22,5,6,1,1"
dtnsim.node[22].app.start = "96,75,3,68,12,97,32,16,5,93"
dtnsim.node[22].app.destinationEid = "38,89,42,5,74,62,113,105,87,15"
dtnsim.node[22].app.size = "50,100,100,100,100,50,200,50,200,500"
# Node 23 random traffic
dtnsim.node[23].app.enable = true
dtnsim.node[23].app.bundlesNumber = "14,11,8,15,12,12,11,16,1"
dtnsim.node[23].app.start = "4,62,92,77,74,80,60,6,86"
dtnsim.node[23].app.destinationEid = "4,85,79,95,84,32,79,90,52"
dtnsim.node[23].app.size = "50,200,200,100,100,50,500,200,100"
# Node 24 random traffic
dtnsim.node[24].app.enable = true
dtnsim.node[24].app.bundlesNumber = "4,5,7,20,14,10,2,9,2,2,6,16,2,1"
dtnsim.node[24].app.start = "29,92,62,3,87,83,69,42,73,29,97,48,70,71"
dtnsim.node[24].app.destinationEid = "45,23,19,95,84,49,57,31,74,50,17,84,15,87"
dtnsim.node[24].app.size = "100,500,50,50,100,100,50,500,500,500,50,500,500,500"
# Node 25 random traffic
dtnsim.node[25].app.enable = true
dtnsim.node[25].app.bundlesNumber = "23,22,5,25,13,7,3,2"
dtnsim.node[25].app.start = "53,88,40,18,35,51,52,85"
dtnsim.node[25].app.destinationEid = "88,58,95,73,48,67,116,116"
dtnsim.node[25].app.size = "500,200,100,50,50,50,500,500"
# Node 26 random traffic
dtnsim.node[26].app.enable = true
dtnsim.node[26].app.bundlesNumber = "2,17,17,20,23,12,4,4,1"
dtnsim.node[26].app.start = "61,76,62,60,92,100,93,67,49"
dtnsim.node[26].app.destinationEid = "56,52,83,79,34,105,98,32,63"
dtnsim.node[26].app.size = "200,200,200,500,100,50,50,200,50"
# Node 27 random traffic
dtnsim.node[27].app.enable = true
dtnsim.node[27].app.bundlesNumber = "8,6,17,14,25,9,1,19,1"
dtnsim.node[27].app.start = "18,82,18,28,54,34,6,74,97"
dtnsim.node[27].app.destinationEid = "19,55,98,117,103,83,30,46,106"
dtnsim.node[27].app.size = "500,100,500,100,100,100,200,500,50"
# Node 28 random traffic
dtnsim.node[28].app.enable = true
dtnsim.node[28].app.bundlesNumber = "12,24,25,8,1,25,3,2"
dtnsim.node[28].app.start = "39,56,1,38,71,20,99,45"
dtnsim.node[28].app.destinationEid = "98,21,49,57,94,40,84,39"
dtnsim.node[28].app.size = "500,100,500,50,50,50,50,100"
# Node 29 random traffic
dtnsim.node[29].app.enable = true
dtnsim.node[29].app.bundlesNumber = "22,18,12,20,14,9,3,1,1"
dtnsim.node[29].app.start = "14,94,74,22,58,41,2,98,68"
dtnsim.node[29].app.destinationEid = "78,31,42,78,60,52,22,101,100"
dtnsim.node[29].app.size = "100,50,200,500,500,200,100,500,500"
# Node 30 random traffic
dtnsim.node[30].app.enable = true
dtnsim.node[30].app.bundlesNumber = "19,18,4,8,16,9,10,10,4,2"
dtnsim.node[30].app.start = "50,89,70,32,34,62,59,95,99,65"
dtnsim.node[30].app.destinationEid = "91,52,113,91,105,56,80,93,109,56"
dtnsim.node[30].app.size = "500,100,50,500,50,200,500,200,500,500"
# Node 31 random traffic
dtnsim.node[31].app.enable = true
dtnsim.node[31].app.bundlesNumber = "10,8,17,3,6,13,11,12,11,8,1"
dtnsim.node[31].app.start = "30,17,94,97,93,76,29,89,85,10,66"
dtnsim.node[31].app.destinationEid = "36,117,87,38,10,101,92,28,101,61,81"
dtnsim.node[31].app.size = "50,200,100,100,50,50,100,200,500,200,100"
# Node 32 random traffic
dtnsim.node[32].app.enable = true
dtnsim.node[32].app.bundlesNumber = "6,11,13,24,19,11,5,1,8,2"
dtnsim.node[32].app.start = "42,29,90,58,93,62,84,36,18,79"
dtnsim.node[32].app.destinationEid = "20,17,96,76,118,92,7,88,67,84"
dtnsim.node[32].app.size = "500,50,100,50,50,50,100,100,200,200"
# Node 33 random traffic
dtnsim.node[33].app.enable = true
dtnsim.node[33].app.bundlesNumber = "22,6,19,25,5,11,1,6,4,1"
dtnsim.node[33].app.start = "51,66,20,82,47,93,56,19,15,69"
dtnsim.node[33].app.destinationEid = "98,55,68,28,104,90,9,92,48,105"
dtnsim.node[33].app.size = "100,100,500,100,100,50,100,200,500,500"
# Node 34 random traffic
dtnsim.node[34].app.enable = true
dtnsim.node[34].app.bundlesNumber = "12,19,6,2,6,13,25,15,2"
dtnsim.node[34].app.start = "37,39,59,75,31,64,55,90,16"
dtnsim.node[34].app.destinationEid = "110,103,63,47,62,38,92,5,49"
dtnsim.node[34].app.size = "50,200,100,200,200,500,200,200,200"
# Node 35 random traffic
dtnsim.node[35].app.enable = true
dtnsim.node[35].app.bundlesNumber = "6,11,6,5,2,3,1,22,18,10,12,2,1,1"
dtnsim.node[35].app.start = "82,62,45,88,89,73,80,40,23,96,77,63,98,15"
dtnsim.node[35].app.destinationEid = "96,27,29,91,109,10,49,64,77,96,55,86,52,119"
dtnsim.node[35].app.size = "50,50,100,50,50,200,50,500,500,200,500,50,200,500"
# Node 36 random traffic
dtnsim.node[36].app.enable = true
dtnsim.node[36].app.bundlesNumber = "17,11,9,5,11,9,10,17,3,1,2,4,1"
dtnsim.node[36].app.start = "36,29,63,36,66,8,71,14,70,52,35,21,9"
dtnsim.node[36].app.destinationEid = "17,83,1,104,104,23,70,20,40,43,63,34,19"
dtnsim.node[36].app.size = "200,500,50,100,200,50,500,200,200,500,100,50,100"
# Node 37 random traffic
dtnsim.node[37].app.enable = true
dtnsim.node[37].app.bundlesNumber = "7,15,12,20,24,5,11,5,1"
dtnsim.node[37].app.start = "97,85,26,76,82,8,69,1,60"
dtnsim.node[37].app.destinationEid = "69,17,73,19,74,16,46,69,116"
dtnsim.node[37].app.size = "50,50,50,200,500,200,500,100,200"
# Node 38 random traffic
dtnsim.node[38].app.enable = true
dtnsim.node[38].app.bundlesNumber = "5,4,2,6,4,15,1,9,4,17,22,8,3"
dtnsim.node[38].app.start = "38,36,74,82,93,70,51,44,70,36,94,6,66"
dtnsim.node[38].app.destinationEid = "115,89,33,41,74,57,62,58,7,12,90,74,18"
dtnsim.node[38].app.size = "200,100,200,200,100,50,100,50,200,200,500,200,100"
# Node 39 random traffic
dtnsim.node[39].app.enable = true
dtnsim.node[39].app.bundlesNumber = "20,6,12,19,24,1,7,3,7,1"
dtnsim.node[39].app.start = "51,18,64,34,27,54,43,9,6,22"
dtnsim.node[39].app.destinationEid = "103,96,100,57,14,106,24,10,18,3"
dtnsim.node[39].app.size = "200,50,100,50,100,200,200,500,100,100"
# Node 40 random traffic
dtnsim.node[40].app.enable = true
dtnsim.node[40].app.bundlesNumber = "12,11,15,13,20,12,1,7,7,1,1"
dtnsim.node[40].app.start = "97,55,98,55,26,92,16,36,76,41,61"
dtnsim.node[40].app.destinationEid = "13,75,3,50,48,1,31,10,46,96,91"
dtnsim.node[40].app.size = "200,200,500,50,200,200,50,100,200,50,200"
# Node 41 random traffic
dtnsim.node[41].app.enable = true
dtnsim.node[41].app.bundlesNumber = "12,25,4,13,15,2,11,14,3,1"
dtnsim.node[41].app.start = "1,88,68,68,21,26,45,64,45,11"
dtnsim.node[41].app.destinationEid = "43,101,116,109,75,111,97,116,102,120"
dtnsim.node[41].app.size = "200,200,100,50,50,100,500,50,200,100"
# Node 42 random traffic
dtnsim.node[42].app.enable = true
dtnsim.node[42].app.bundlesNumber = "1,7,20,9,9,6,19,16,1,8,2,2"
dtnsim.node[42].app.start = "19,74,68,17,37,46,27,13,84,59,30,13"
dtnsim.node[42].app.destinationEid = "41,28,48,29,92,61,102,6,72,49,100,34"
dtnsim.node[42].app.size = "50,50,50,500,50,100,50,50,200,200,500,50"
# Node 43 random traffic
dtnsim.node[43].app.enable = true
dtnsim.node[43].app.bundlesNumber = "6,20,7,19,13,13,22"
dtnsim.node[43].app.start = "50,84,57,45,63,22,35"
dtnsim.node[43].app.destinationEid = "56,76,62,54,42,98,17"
dtnsim.node[43].app.size = "500,200,100,500,100,500,500"
# Node 44 random traffic
dtnsim.node[44].app.enable = true
dtnsim.node[44].app.bundlesNumber = "25,13,6,23,12,17,4"
dtnsim.node[44].app.start = "14,21,15,24,27,21,67"
dtnsim.node[44].app.destinationEid = "65,61,104,114,76,69,10"
dtnsim.node[44].app.size = "200,100,50,100,500,100,200"
# Node 45 random traffic
dtnsim.node[45].app.enable = true
dtnsim.node[45].app.bundlesNumber = "23,13,2,21,8,6,6,18,1,1,1"
dtnsim.node[45].app.start = "94,21,26,99,71,81,84,12,7,99,80"
dtnsim.node[45].app.destinationEid = "66,90,42,56,73,28,87,76,8,67,34"
dtnsim.node[45].app.size = "500,100,100,500,100,100,100,50,200,200,100"
# Node 46 random traffic
dtnsim.node[46].app.enable = true
dtnsim.node[46].app.bundlesNumber = "21,17,25,3,21,10,2,1"
dtnsim.node[46].app.start = "75,95,13,38,78,76,90,26"
dtnsim.node[46].app.destinationEid = "65,3,105,43,52,2,14,88"
dtnsim.node[46].app.size = "50,100,50,50,50,500,100,50"
# Node 47 random traffic
dtnsim.node[47].app.enable = true
dtnsim.node[47].app.bundlesNumber = "1,3,25,19,25,1,10,5,4,1,6"
dtnsim.node[47].app.start = "57,97,49,99,56,29,59,85,71,75,39"
dtnsim.node[47].app.destinationEid = "13,93,120,112,105,103,84,59,22,52,50"
dtnsim.node[47].app.size = "200,50,100,50,200,500,100,100,100,50,50"
# Node 48 random traffic
dtnsim.node[48].app.enable = true
dtnsim.node[48].app.bundlesNumber = "9,6,9,4,21,22,12,5,1,3,2,2,1,3"
dtnsim.node[48].app.start = "82,62,53,59,71,18,76,87,51,7,13,11,40,26"
dtnsim.node[48].app.destinationEid = "33,105,25,109,24,33,120,20,59,106,93,119,68,72"
dtnsim.node[48].app.size = "200,500,200,100,200,100,500,500,50,200,50,100,200,500"
# Node 49 random traffic
dtnsim.node[49].app.enable = true
dtnsim.node[49].app.bundlesNumber = "13,16,18,17,20,15,1"
dtnsim.node[49].app.start = "54,20,21,17,67,91,26"
dtnsim.node[49].app.destinationEid = "18,70,92,53,34,33,7"
dtnsim.node[49].app.size = "200,500,50,200,500,200,500"
# Node 50 random traffic
dtnsim.node[50].app.enable = true
dtnsim.node[50].app.bundlesNumber = "15,14,15,12,15,6,22,1"
dtnsim.node[50].app.start = "50,39,43,96,10,76,3,82"
dtnsim.node[50].app.destinationEid = "88,28,44,10,106,99,22,102"
dtnsim.node[50].app.size = "500,200,50,50,50,500,50,200"
# Node 51 random traffic
dtnsim.node[51].app.enable = true
dtnsim.node[51].app.bundlesNumber = "23,11,19,13,5,15,5,2,3,2,2"
dtnsim.node[51].app.start = "28,100,75,15,47,29,23,72,30,86,6"
dtnsim.node[51].app.destinationEid = "119,5,88,14,79,32,3,120,62,58,16"
dtnsim.node[51].app.size = "200,500,50,200,200,50,100,500,100,100,500"
# Node 52 random traffic
dtnsim.node[52].app.enable = true
dtnsim.node[52].app.bundlesNumber = "2,7,18,17,12,4,19,5,9,1,1,3,1,1"
dtnsim.node[52].app.start = "7,10,44,28,26,19,4,85,77,81,4,98,36,54"
dtnsim.node[52].app.destinationEid = "42,10,67,12,87,82,60,112,85,30,55,58,110,51"
dtnsim.node[52].app.size = "500,100,200,200,500,500,500,200,200,500,100,100,500,50"
# Node 53 random traffic
dtnsim.node[53].app.enable = true
dtnsim.node[53].app.bundlesNumber = "12,10,17,14,11,7,6,14,7,1,1"
dtnsim.node[53].app.start = "40,76,88,36,52,10,31,86,92,33,31"
dtnsim.node[53].app.destinationEid = "31,62,110,101,18,76,101,116,95,101,95"
dtnsim.node[53].app.size = "100,500,200,50,500,50,200,500,100,50,50"
# Node 54 random traffic
dtnsim.node[54].app.enable = true
dtnsim.node[54].app.bundlesNumber = "12,9,13,24,20,1,6,1,7,4,3"
dtnsim.node[54].app.start = "4,10,1,100,88,69,28,55,74,51,80"
dtnsim.node[54].app.destinationEid = "95,25,42,58,111,95,60,116,113,94,100"
dtnsim.node[54].app.size = "500,50,200,500,200,100,100,200,500,100,50"
# Node 55 random traffic
dtnsim.node[55].app.enable = true
dtnsim.node[55].app.bundlesNumber = "22,18,1,24,20,9,1,2,1,2"
dtnsim.node[55].app.start = "74,25,78,17,11,33,29,30,85,87"
dtnsim.node[55].app.destinationEid = "104,73,35,57,115,46,103,114,13,80"
dtnsim.node[55].app.size = "500,50,200,200,50,50,50,500,200,200"
# Node 56 random traffic
dtnsim.node[56].app.enable = true
dtnsim.node[56].app.bundlesNumber = "24,10,8,9,6,18,10,14,1"
dtnsim.node[56].app.start = "47,37,80,91,62,57,85,60,76"
dtnsim.node[56].app.destinationEid = "18,17,75,65,7,108,116,8,2"
dtnsim.node[56].app.size = "500,100,100,500,200,50,100,100,500"
# Node 57 random traffic
dtnsim.node[57].app.enable = true
dtnsim.node[57].app.bundlesNumber = "8,19,7,2,6,18,1,17,11,11"
dtnsim.node[57].app.start = "40,86,85,97,28,57,70,82,27,8"
dtnsim.node[57].app.destinationEid = "76,96,105,31,35,117,88,52,105,102"
dtnsim.node[57].app.size = "100,500,200,50,100,50,50,200,500,500"
# Node 58 random traffic
dtnsim.node[58].app.enable = true
dtnsim.node[58].app.bundlesNumber = "17,15,14,24,13,3,11,1,1,1"
dtnsim.node[58].app.start = "16,58,63,50,59,32,37,45,74,73"
dtnsim.node[58].app.destinationEid = "119,11,3,119,98,109,27,3,2,43"
dtnsim.node[58].app.size = "50,200,100,100,500,50,200,100,500,500"
# Node 59 random traffic
dtnsim.node[59].app.enable = true
dtnsim.node[59].app.bundlesNumber = "5,16,24,20,13,11,6,5"
dtnsim.node[59].app.start = "5,42,27,22,51,89,59,98"
dtnsim.node[59].app.destinationEid = "112,50,78,55,100,117,18,25"
dtnsim.node[59].app.size = "100,200,100,50,200,500,200,100"
# Node 60 random traffic
dtnsim.node[60].app.enable = true
dtnsim.node[60].app.bundlesNumber = "7,6,1,18,11,20,23,10,3,1"
dtnsim.node[60].app.start = "93,6,98,59,78,60,81,18,77,71"
dtnsim.node[60].app.destinationEid = "4,81,28,105,107,120,117,9,5,79"
dtnsim.node[60].app.size = "200,100,100,200,500,500,200,100,500,50"
# Node 61 random traffic
dtnsim.node[61].app.enable = true
dtnsim.node[61].app.bundlesNumber = "19,16,16,1,15,6,5,10,1,10,1"
dtnsim.node[61].app.start = "49,46,63,13,59,78,31,6,41,78,67"
dtnsim.node[61].app.destinationEid = "60,23,15,41,54,14,14,67,109,25,119"
dtnsim.node[61].app.size = "50,100,50,500,100,100,200,100,50,50,200"
# Node 62 random traffic
dtnsim.node[62].app.enable = true
dtnsim.node[62].app.bundlesNumber = "6,15,9,24,2,7,19,11,6,1"
dtnsim.node[62].app.start = "18,10,59,68,43,81,74,75,51,22"
dtnsim.node[62].app.destinationEid = "36,19,78,109,64,111,115,9,56,60"
dtnsim.node[62].app.size = "100,200,200,200,200,200,100,50,500,50"
# Node 63 random traffic
dtnsim.node[63].app.enable = true
dtnsim.node[63].app.bundlesNumber = "14,23,22,11,5,8,3,10,4"
dtnsim.node[63].app.start = "96,21,22,46,26,76,39,90,5"
dtnsim.node[63].app.destinationEid = "38,21,35,2,89,102,13,69,116"
dtnsim.node[63].app.size = "500,100,100,100,200,50,50,50,100"
# Node 64 random traffic
dtnsim.node[64].app.enable = true
dtnsim.node[64].app.bundlesNumber = "8,25,5,14,8,11,24,4,1"
dtnsim.node[64].app.start = "59,34,13,80,10,93,93,8,79"
dtnsim.node[64].app.destinationEid = "110,48,43,50,65,104,3,96,75"
dtnsim.node[64].app.size = "500,100,200,500,100,200,500,500,500"
# Node 65 random traffic
dtnsim.node[65].app.enable = true
dtnsim.node[65].app.bundlesNumber = "25,18,11,6,15,6,17,2"
dtnsim.node[65].app.start = "40,30,35,60,99,14,9,25"
dtnsim.node[65].app.destinationEid = "82,113,10,104,51,8,4,88"
dtnsim.node[65].app.size = "100,100,50,500,500,200,500,200"
# Node 66 random traffic
dtnsim.node[66].app.enable = true
dtnsim.node[66].app.bundlesNumber = "5,6,13,23,2,15,21,11,3,1"
dtnsim.node[66].app.start = "70,12,26,13,10,69,89,10,6,57"
dtnsim.node[66].app.destinationEid = "32,21,110,1,12,36,80,27,108,18"
dtnsim.node[66].app.size = "200,50,100,500,200,100,50,50,200,500"
# Node 67 random traffic
dtnsim.node[67].app.enable = true
dtnsim.node[67].app.bundlesNumber = "6,22,20,2,6,12,5,24,3"
dtnsim.node[67].app.start = "62,16,79,10,61,23,83,48,45"
dtnsim.node[67].app.destinationEid = "17,83,25,25,8,35,36,12,94"
dtnsim.node[67].app.size = "100,50,100,50,200,100,200,200,200"
# Node 68 random traffic
dtnsim.node[68].app.enable = true
dtnsim.node[68].app.bundlesNumber = "14,12,3,9,17,21,15,7,1,1"
dtnsim.node[68].app.start = "25,68,81,21,22,35,60,43,27,27"
dtnsim.node[68].app.destinationEid = "119,29,76,91,85,111,37,25,86,45"
dtnsim.node[68].app.size = "500,100,50,500,500,200,500,200,50,100"
# Node 69 random traffic
dtnsim.node[69].app.enable = true
dtnsim.node[69].app.bundlesNumber = "13,8,10,8,21,20,18,1,1"
dtnsim.node[69].app.start = "84,39,77,59,72,84,66,6,4"
dtnsim.node[69].app.destinationEid = "20,38,42,93,107,46,25,47,4"
dtnsim.node[69].app.size = "100,100,500,500,100,100,50,50,50"
# Node 70 random traffic
dtnsim.node[70].app.enable = true
dtnsim.node[70].app.bundlesNumber = "11,16,21,6,19,13,14"
dtnsim.node[70].app.start = "87,8,73,26,61,48,64"
dtnsim.node[70].app.destinationEid = "14,103,21,32,73,101,29"
dtnsim.node[70].app.size = "50,200,100,200,200,100,50"
# Node 71 random traffic
dtnsim.node[71].app.enable = true
dtnsim.node[71].app.bundlesNumber = "17,8,9,4,23,2,20,6,1,9,1"
dtnsim.node[71].app.start = "37,70,82,69,91,14,34,95,2,95,4"
dtnsim.node[71].app.destinationEid = "118,13,83,54,34,2,76,119,97,51,60"
dtnsim.node[71].app.size = "50,500,500,100,500,200,500,500,50,500,500"
# Node 72 random traffic
dtnsim.node[72].app.enable = true
dtnsim.node[72].app.bundlesNumber = "3,21,21,11,20,4,18,2"
dtnsim.node[72].app.start = "71,16,80,4,47,5,39,55"
dtnsim.node[72].app.destinationEid = "48,89,60,112,98,13,70,51"
dtnsim.node[72].app.size = "50,50,200,100,100,50,500,200"
# Node 73 random traffic
dtnsim.node[73].app.enable = true
dtnsim.node[73].app.bundlesNumber = "4,4,13,24,15,24,4,3,3,4,1,1"
dtnsim.node[73].app.start = "93,55,92,27,21,39,27,74,48,77,32,65"
dtnsim.node[73].app.destinationEid = "43,61,102,33,82,21,37,117,30,58,28,42"
dtnsim.node[73].app.size = "50,50,50,200,50,500,50,500,100,500,200,200"
# Node 74 random traffic
dtnsim.node[74].app.enable = true
dtnsim.node[74].app.bundlesNumber = "14,18,11,17,22,16,2"
dtnsim.node[74].app.start = "1,16,78,88,42,34,19"
dtnsim.node[74].app.destinationEid = "110,66,120,64,82,81,108"
dtnsim.node[74].app.size = "200,50,500,200,50,500,50"
# Node 75 random traffic
dtnsim.node[75].app.enable = true
dtnsim.node[75].app.bundlesNumber = "7,1,12,1,18,21,7,15,3,11,2,1,1"
dtnsim.node[75].app.start = "22,83,86,75,30,74,58,19,8,81,24,30,22"
dtnsim.node[75].app.destinationEid = "108,86,33,102,69,35,116,22,102,66,57,22,54"
dtnsim.node[75].app.size = "500,50,100,50,500,500,50,200,200,500,100,500,100"
# Node 76 random traffic
dtnsim.node[76].app.enable = true
dtnsim.node[76].app.bundlesNumber = "14,12,4,7,20,25,14,1,3"
dtnsim.node[76].app.start = "15,35,21,18,51,45,69,52,32"
dtnsim.node[76].app.destinationEid = "71,9,120,71,91,88,73,26,69"
dtnsim.node[76].app.size = "200,50,50,50,50,200,100,50,500"
# Node 77 random traffic
dtnsim.node[77].app.enable = true
dtnsim.node[77].app.bundlesNumber = "9,23,2,9,20,20,9,6,1,1"
dtnsim.node[77].app.start = "35,38,13,63,1,12,25,86,10,70"
dtnsim.node[77].app.destinationEid = "115,88,69,45,70,101,39,38,5,28"
dtnsim.node[77].app.size = "200,200,200,100,500,100,100,200,100,500"
# Node 78 random traffic
dtnsim.node[78].app.enable = true
dtnsim.node[78].app.bundlesNumber = "8,25,7,9,16,5,10,17,3"
dtnsim.node[78].app.start = "74,85,73,15,89,51,24,47,78"
dtnsim.node[78].app.destinationEid = "31,93,50,1,36,101,81,57,2"
dtnsim.node[78].app.size = "200,100,200,200,50,200,500,100,50"
# Node 79 random traffic
dtnsim.node[79].app.enable = true
dtnsim.node[79].app.bundlesNumber = "13,13,14,22,6,11,9,7,2,1,2"
dtnsim.node[79].app.start = "81,21,2,76,79,38,38,63,27,1,42"
dtnsim.node[79].app.destinationEid = "56,33,1,4,102,38,21,1,58,97,103"
dtnsim.node[79].app.size = "200,100,50,50,50,500,200,500,200,500,200"
# Node 80 random traffic
dtnsim.node[80].app.enable = true
dtnsim.node[80].app.bundlesNumber = "9,9,15,6,14,2,5,20,10,1,5,2,1,1"
dtnsim.node[80].app.start = "45,5,98,88,76,87,76,85,85,42,95,72,58,27"
dtnsim.node[80].app.destinationEid = "23,111,77,108,116,77,107,69,67,30,90,89,9,50"
dtnsim.node[80].app.size = "50,200,200,50,200,200,50,50,50,200,50,50,50,50"
# Node 81 random traffic
dtnsim.node[81].app.enable = true
dtnsim.node[81].app.bundlesNumber = "6,2,15,11,20,15,7,20,4"
dtnsim.node[81].app.start = "61,36,31,82,9,26,52,9,76"
dtnsim.node[81].app.destinationEid = "118,49,20,50,78,9,24,5,89"
dtnsim.node[81].app.size = "100,100,100,200,500,200,100,200,200"
# Node 82 random traffic
dtnsim.node[82].app.enable = true
dtnsim.node[82].app.bundlesNumber = "25,23,1,1,8,22,14,5,1"
dtnsim.node[82].app.start = "90,5,40,40,64,18,87,82,21"
dtnsim.node[82].app.destinationEid = "49,29,42,54,32,39,8,59,18"
dtnsim.node[82].app.size = "50,200,500,100,200,100,100,200,50"
# Node 83 random traffic
dtnsim.node[83].app.enable = true
dtnsim.node[83].app.bundlesNumber = "3,25,15,23,6,3,7,11,7"
dtnsim.node[83].app.start = "28,41,49,71,95,82,80,60,72"
dtnsim.node[83].app.destinationEid = "11,67,76,89,86,11,77,21,45"
dtnsim.node[83].app.size = "200,500,50,100,200,50,500,500,100"
# Node 84 random traffic
dtnsim.node[84].app.enable = true
dtnsim.node[84].app.bundlesNumber = "1,17,2,22,8,25,12,6,2,4,1"
dtnsim.node[84].app.start = "89,80,21,59,98,48,80,98,98,7,19"
dtnsim.node[84].app.destinationEid = "15,104,30,28,75,118,96,26,45,10,63"
dtnsim.node[84].app.size = "200,500,50,50,100,100,50,500,50,50,200"
# Node 85 random traffic
dtnsim.node[85].app.enable = true
dtnsim.node[85].app.bundlesNumber = "10,16,9,8,18,25,10,3,1"
dtnsim.node[85].app.start = "20,62,95,47,54,91,83,82,84"
dtnsim.node[85].app.destinationEid = "98,7,6,29,51,93,73,10,58"
dtnsim.node[85].app.size = "50,200,100,500,100,200,500,200,100"
# Node 86 random traffic
dtnsim.node[86].app.enable = true
dtnsim.node[86].app.bundlesNumber = "20,3,14,21,20,7,3,4,1,7"
dtnsim.node[86].app.start = "98,4,75,56,21,30,13,8,81,20"
dtnsim.node[86].app.destinationEid = "68,92,30,9,110,103,25,16,111,10"
dtnsim.node[86].app.size = "100,100,500,500,200,100,500,100,500,500"
# Node 87 random traffic
dtnsim.node[87].app.enable = true
dtnsim.node[87].app.bundlesNumber = "24,2,8,25,9,6,2,3,12,2,1,3,1,2"
dtnsim.node[87].app.start = "48,52,70,12,75,79,19,67,20,35,46,59,96,76"
dtnsim.node[87].app.destinationEid = "21,95,26,104,113,106,36,14,43,85,24,10,116,15"
dtnsim.node[87].app.size = "200,50,200,100,200,50,200,500,100,200,100,200,500,200"
# Node 88 random traffic
dtnsim.node[88].app.enable = true
dtnsim.node[88].app.bundlesNumber = "25,16,13,8,20,4,2,10,2"
dtnsim.node[88].app.start = "100,99,39,37,49,95,23,74,98"
dtnsim.node[88].app.destinationEid = "55,66,66,67,27,109,103,70,77"
dtnsim.node[88].app.size = "500,50,50,50,500,200,200,50,200"
# Node 89 random traffic
dtnsim.node[89].app.enable = true
dtnsim.node[89].app.bundlesNumber = "19,16,8,3,7,9,20,3,12,1,1,1"
dtnsim.node[89].app.start = "69,41,95,4,77,8,74,15,2,75,95,17"
dtnsim.node[89].app.destinationEid = "113,110,74,62,83,29,119,94,15,47,15,54"
dtnsim.node[89].app.size = "500,100,50,100,200,50,200,50,50,500,100,200"
# Node 90 random traffic
dtnsim.node[90].app.enable = true
dtnsim.node[90].app.bundlesNumber = "23,23,13,5,25,1,9,1"
dtnsim.node[90].app.start = "72,15,95,57,89,47,62,73"
dtnsim.node[90].app.destinationEid = "6,83,18,18,105,96,108,58"
dtnsim.node[90].app.size = "100,50,50,500,200,100,500,100"
# Node 91 random traffic
dtnsim.node[91].app.enable = true
dtnsim.node[91].app.bundlesNumber = "10,5,13,13,6,1,16,25,10,1"
dtnsim.node[91].app.start = "86,15,88,40,38,64,48,34,25,34"
dtnsim.node[91].app.destinationEid = "56,75,117,38,23,39,107,16,67,21"
dtnsim.node[91].app.size = "100,100,500,100,100,50,200,50,100,100"
# Node 92 random traffic
dtnsim.node[92].app.enable = true
dtnsim.node[92].app.bundlesNumber = "16,14,5,7,8,15,24,11"
dtnsim.node[92].app.start = "34,53,17,79,25,6,48,82"
dtnsim.node[92].app.destinationEid = "112,13,15,114,59,95,117,79"
dtnsim.node[92].app.size = "200,50,500,50,50,50,50,200"
# Node 93 random traffic
dtnsim.node[93].app.enable = true
dtnsim.node[93].app.bundlesNumber = "20,1,20,9,9,1,7,9,15,3,1,4,1"
dtnsim.node[93].app.start = "53,87,15,76,43,78,25,84,66,38,72,89,82"
dtnsim.node[93].app.destinationEid = "70,57,76,75,75,33,50,97,65,87,92,27,77"
dtnsim.node[93].app.size = "100,50,200,200,100,100,100,500,500,100,200,50,100"
# Node 94 random traffic