[General]
network = src.dtnsim										
repeat = 1
allow-object-stealing-on-deletion = true

# Simulation end time
sim-time-limit = 84600s

# Nodes quantity (identifiers (EiDs) matches their index, EiD=0 is ignored)			
dtnsim.nodesNumber = 240
dtnsim.node[*].icon = "satellite"

# Nodes's failure rates
dtnsim.node[*].fault.enable = true
dtnsim.node[*].fault.meanTTF = 190s
dtnsim.node[*].fault.meanTTR = 10s

# Mobility
dtnsim.node[*].hasMobility = true
dtnsim.node[*].norad.satIndex = parentIndex()
dtnsim.node[*].norad.satName = "sat"
**.updateInterval = 20s
**.numOfSats = 240
**.satPerPlane = 12
**.altitude = 540
**.planes = 20
**.phaseOffset = 11

dtnsim.node[*].dtn.routing = "antop"
dtnsim.node[*].dtn.printRoutingDebug = true

# --- Random Traffic Configuration ---
# Node 1 random traffic
dtnsim.node[1].app.enable = true
dtnsim.node[1].app.bundlesNumber = "3,9,2,16,14,20,11,11,2,12"
dtnsim.node[1].app.start = "5,96,14,34,14,87,7,62,62,90"
dtnsim.node[1].app.destinationEid = "42,196,104,231,89,138,38,162,11,66"
dtnsim.node[1].app.size = "100,50,500,200,50,500,500,50,200,50"
# Node 2 random traffic
dtnsim.node[2].app.enable = true
dtnsim.node[2].app.bundlesNumber = "19,1,25,21,8,17,2,7"
dtnsim.node[2].app.start = "69,42,35,89,22,75,55,34"
dtnsim.node[2].app.destinationEid = "50,74,198,232,25,86,169,184"
dtnsim.node[2].app.size = "500,100,200,200,500,50,200,200"
# Node 3 random traffic
dtnsim.node[3].app.enable = true
dtnsim.node[3].app.bundlesNumber = "17,9,13,3,15,22,1,7,13"
dtnsim.node[3].app.start = "58,18,48,22,49,89,9,79,55"
dtnsim.node[3].app.destinationEid = "110,136,147,33,147,231,92,175,115"
dtnsim.node[3].app.size = "100,50,50,500,200,100,100,50,500"
# Node 4 random traffic
dtnsim.node[4].app.enable = true
dtnsim.node[4].app.bundlesNumber = "24,25,16,9,21,4,1"
dtnsim.node[4].app.start = "36,88,20,46,58,52,26"
dtnsim.node[4].app.destinationEid = "158,11,171,221,102,74,66"
dtnsim.node[4].app.size = "500,500,50,50,200,50,100"
# Node 5 random traffic
dtnsim.node[5].app.enable = true
dtnsim.node[5].app.bundlesNumber = "21,4,5,21,24,24,1"
dtnsim.node[5].app.start = "89,94,33,48,35,80,35"
dtnsim.node[5].app.destinationEid = "83,21,207,143,16,233,214"
dtnsim.node[5].app.size = "500,200,50,200,500,500,100"
# Node 6 random traffic
dtnsim.node[6].app.enable = true
dtnsim.node[6].app.bundlesNumber = "22,9,7,18,22,21,1"
dtnsim.node[6].app.start = "8,60,73,93,63,72,89"
dtnsim.node[6].app.destinationEid = "169,192,152,155,52,182,183"
dtnsim.node[6].app.size = "500,500,50,50,100,50,100"
# Node 7 random traffic
dtnsim.node[7].app.enable = true
dtnsim.node[7].app.bundlesNumber = "8,24,16,18,23,10,1"
dtnsim.node[7].app.start = "65,30,35,84,34,78,68"
dtnsim.node[7].app.destinationEid = "167,107,114,177,114,152,124"
dtnsim.node[7].app.size = "50,500,500,50,50,100,200"
# Node 8 random traffic
dtnsim.node[8].app.enable = true
dtnsim.node[8].app.bundlesNumber = "23,19,9,22,22,1,3,1"
dtnsim.node[8].app.start = "75,88,57,37,95,4,28,7"
dtnsim.node[8].app.destinationEid = "60,78,182,190,115,104,25,99"
dtnsim.node[8].app.size = "200,500,500,50,500,500,500,50"
# Node 9 random traffic
dtnsim.node[9].app.enable = true
dtnsim.node[9].app.bundlesNumber = "20,4,24,21,20,3,6,2"
dtnsim.node[9].app.start = "13,52,50,90,41,28,39,47"
dtnsim.node[9].app.destinationEid = "213,130,106,47,96,119,133,225"
dtnsim.node[9].app.size = "200,100,500,500,500,100,100,100"
# Node 10 random traffic
dtnsim.node[10].app.enable = true
dtnsim.node[10].app.bundlesNumber = "3,20,14,22,10,19,3,2,7"
dtnsim.node[10].app.start = "92,58,61,41,35,30,28,31,42"
dtnsim.node[10].app.destinationEid = "16,144,128,197,212,186,131,56,159"
dtnsim.node[10].app.size = "500,100,500,200,500,50,50,50,50"
# Node 11 random traffic
dtnsim.node[11].app.enable = true
dtnsim.node[11].app.bundlesNumber = "16,25,24,8,25,1,1"
dtnsim.node[11].app.start = "21,16,36,66,35,5,38"
dtnsim.node[11].app.destinationEid = "56,145,137,95,199,102,19"
dtnsim.node[11].app.size = "50,50,100,50,50,500,100"
# Node 12 random traffic
dtnsim.node[12].app.enable = true
dtnsim.node[12].app.bundlesNumber = "2,22,6,18,10,15,2,1,14,7,2,1"
dtnsim.node[12].app.start = "6,31,92,60,16,65,55,52,22,20,57,98"
dtnsim.node[12].app.destinationEid = "125,49,180,166,203,46,27,228,78,213,178,38"
dtnsim.node[12].app.size = "100,200,100,200,200,100,200,100,100,100,100,200"
# Node 13 random traffic
dtnsim.node[13].app.enable = true
dtnsim.node[13].app.bundlesNumber = "21,22,11,14,6,9,12,5"
dtnsim.node[13].app.start = "11,54,53,83,51,35,68,53"
dtnsim.node[13].app.destinationEid = "122,230,190,148,181,195,192,38"
dtnsim.node[13].app.size = "500,200,100,500,200,500,200,100"
# Node 14 random traffic
dtnsim.node[14].app.enable = true
dtnsim.node[14].app.bundlesNumber = "9,25,23,25,6,5,4,1,1,1"
dtnsim.node[14].app.start = "37,1,59,41,99,22,2,67,94,77"
dtnsim.node[14].app.destinationEid = "168,204,163,107,212,92,159,139,52,182"
dtnsim.node[14].app.size = "500,50,500,500,100,100,200,500,500,200"
# Node 15 random traffic
dtnsim.node[15].app.enable = true
dtnsim.node[15].app.bundlesNumber = "10,16,10,15,21,3,14,5,6"
dtnsim.node[15].app.start = "52,71,12,88,65,85,81,25,26"
dtnsim.node[15].app.destinationEid = "123,208,117,42,9,113,169,113,33"
dtnsim.node[15].app.size = "500,100,500,200,500,100,50,100,100"
# Node 16 random traffic
dtnsim.node[16].app.enable = true
dtnsim.node[16].app.bundlesNumber = "18,15,8,7,12,4,16,12,7,1"
dtnsim.node[16].app.start = "43,54,17,58,4,63,56,62,20,99"
dtnsim.node[16].app.destinationEid = "12,147,210,91,129,93,119,94,148,2"
dtnsim.node[16].app.size = "200,500,500,100,500,200,50,100,100,500"
# Node 17 random traffic
dtnsim.node[17].app.enable = true
dtnsim.node[17].app.bundlesNumber = "4,13,23,21,23,2,3,9,2"
dtnsim.node[17].app.start = "70,71,43,40,77,80,18,85,48"
dtnsim.node[17].app.destinationEid = "2,87,88,200,83,97,125,62,4"
dtnsim.node[17].app.size = "100,500,200,100,500,200,100,200,50"
# Node 18 random traffic
dtnsim.node[18].app.enable = true
dtnsim.node[18].app.bundlesNumber = "12,1,20,24,10,13,19,1"
dtnsim.node[18].app.start = "24,1,56,46,4,60,94,32"
dtnsim.node[18].app.destinationEid = "174,171,94,74,72,70,184,194"
dtnsim.node[18].app.size = "200,500,50,50,500,500,100,100"
# Node 19 random traffic
dtnsim.node[19].app.enable = true
dtnsim.node[19].app.bundlesNumber = "18,23,1,25,18,6,5,1,1,2"
dtnsim.node[19].app.start = "14,1,23,32,51,42,5,31,64,83"
dtnsim.node[19].app.destinationEid = "32,32,178,188,199,102,207,66,202,229"
dtnsim.node[19].app.size = "200,100,200,200,50,100,50,500,100,500"
# Node 20 random traffic
dtnsim.node[20].app.enable = true
dtnsim.node[20].app.bundlesNumber = "7,14,24,7,14,1,8,6,5,9,1,1,1,2"
dtnsim.node[20].app.start = "42,8,68,73,27,31,29,81,29,57,83,55,72,26"
dtnsim.node[20].app.destinationEid = "121,187,196,131,148,138,141,43,90,34,112,119,68,17"
dtnsim.node[20].app.size = "50,500,500,500,50,100,50,200,500,50,200,200,100,50"
# Node 21 random traffic
dtnsim.node[21].app.enable = true
dtnsim.node[21].app.bundlesNumber = "24,6,11,14,15,4,11,11,3,1"
dtnsim.node[21].app.start = "42,86,98,1,16,73,67,79,12,75"
dtnsim.node[21].app.destinationEid = "189,13,163,134,78,232,19,174,82,42"
dtnsim.node[21].app.size = "50,100,100,500,200,100,100,100,100,500"
# Node 22 random traffic
dtnsim.node[22].app.enable = true
dtnsim.node[22].app.bundlesNumber = "25,3,6,10,25,9,16,2,3,1"
dtnsim.node[22].app.start = "43,30,93,50,30,71,76,97,97,36"
dtnsim.node[22].app.destinationEid = "143,182,181,212,48,69,166,89,128,10"
dtnsim.node[22].app.size = "500,500,500,200,100,200,100,100,50,100"
# Node 23 random traffic
dtnsim.node[23].app.enable = true
dtnsim.node[23].app.bundlesNumber = "11,8,9,12,18,15,3,23,1"
dtnsim.node[23].app.start = "49,57,7,94,62,33,96,65,96"
dtnsim.node[23].app.destinationEid = "189,177,228,203,10,56,25,20,20"
dtnsim.node[23].app.size = "200,100,100,500,100,50,200,50,500"
# Node 24 random traffic
dtnsim.node[24].app.enable = true
dtnsim.node[24].app.bundlesNumber = "9,25,7,25,16,4,5,1,8"
dtnsim.node[24].app.start = "55,52,26,71,17,14,40,34,5"
dtnsim.node[24].app.destinationEid = "63,150,151,137,22,155,192,70,72"
dtnsim.node[24].app.size = "500,500,500,100,200,50,50,200,500"
# Node 25 random traffic
dtnsim.node[25].app.enable = true
dtnsim.node[25].app.bundlesNumber = "18,7,11,22,20,3,7,6,5,1"
dtnsim.node[25].app.start = "61,11,93,51,12,63,18,15,76,41"
dtnsim.node[25].app.destinationEid = "151,128,55,65,225,53,130,75,14,116"
dtnsim.node[25].app.size = "100,500,100,200,500,200,100,200,200,200"
# Node 26 random traffic
dtnsim.node[26].app.enable = true
dtnsim.node[26].app.bundlesNumber = "7,6,23,21,5,16,6,15,1"
dtnsim.node[26].app.start = "43,68,17,95,18,92,33,96,32"
dtnsim.node[26].app.destinationEid = "154,9,96,168,202,168,87,108,61"
dtnsim.node[26].app.size = "100,200,100,100,100,50,50,500,50"
# Node 27 random traffic
dtnsim.node[27].app.enable = true
dtnsim.node[27].app.bundlesNumber = "16,5,10,15,23,14,3,6,6,1,1"
dtnsim.node[27].app.start = "35,9,17,21,47,96,17,20,16,3,86"
dtnsim.node[27].app.destinationEid = "177,18,83,177,157,118,36,142,2,123,40"
dtnsim.node[27].app.size = "200,100,100,500,50,500,50,200,50,50,200"
# Node 28 random traffic
dtnsim.node[28].app.enable = true
dtnsim.node[28].app.bundlesNumber = "17,20,1,23,11,18,9,1"
dtnsim.node[28].app.start = "85,33,80,92,80,32,15,51"
dtnsim.node[28].app.destinationEid = "77,152,23,118,122,57,204,61"
dtnsim.node[28].app.size = "50,200,200,500,50,500,50,500"
# Node 29 random traffic
dtnsim.node[29].app.enable = true
dtnsim.node[29].app.bundlesNumber = "11,10,15,9,18,7,14,11,3,1,1"
dtnsim.node[29].app.start = "87,19,14,31,48,19,53,35,32,98,11"
dtnsim.node[29].app.destinationEid = "4,199,157,186,5,34,41,206,185,204,41"
dtnsim.node[29].app.size = "500,200,100,50,100,50,50,500,200,100,500"
# Node 30 random traffic
dtnsim.node[30].app.enable = true
dtnsim.node[30].app.bundlesNumber = "5,8,25,12,18,4,7,21"
dtnsim.node[30].app.start = "31,39,95,95,91,14,1,3"
dtnsim.node[30].app.destinationEid = "188,63,84,115,218,72,89,92"
dtnsim.node[30].app.size = "200,500,100,500,100,200,100,50"
# Node 31 random traffic
dtnsim.node[31].app.enable = true
dtnsim.node[31].app.bundlesNumber = "3,4,7,16,18,2,13,20,15,1,1"
dtnsim.node[31].app.start = "77,28,67,56,13,43,91,58,60,6,60"
dtnsim.node[31].app.destinationEid = "12,37,122,190,76,200,57,206,57,96,92"
dtnsim.node[31].app.size = "200,200,200,500,500,200,50,100,100,100,500"
# Node 32 random traffic
dtnsim.node[32].app.enable = true
dtnsim.node[32].app.bundlesNumber = "25,21,9,25,14,3,3"
dtnsim.node[32].app.start = "61,39,80,38,28,54,86"
dtnsim.node[32].app.destinationEid = "49,229,214,222,200,185,137"
dtnsim.node[32].app.size = "100,200,50,200,100,100,200"
# Node 33 random traffic
dtnsim.node[33].app.enable = true
dtnsim.node[33].app.bundlesNumber = "15,24,7,13,11,11,15,2,2"
dtnsim.node[33].app.start = "64,20,60,25,95,32,54,82,100"
dtnsim.node[33].app.destinationEid = "139,100,66,197,102,12,87,2,83"
dtnsim.node[33].app.size = "50,100,200,500,100,100,200,50,200"
# Node 34 random traffic
dtnsim.node[34].app.enable = true
dtnsim.node[34].app.bundlesNumber = "2,23,9,9,14,9,13,6,13,2"
dtnsim.node[34].app.start = "49,28,82,88,5,90,69,39,32,2"
dtnsim.node[34].app.destinationEid = "7,225,79,35,53,237,63,102,224,139"
dtnsim.node[34].app.size = "200,50,200,50,500,500,100,50,200,50"
# Node 35 random traffic
dtnsim.node[35].app.enable = true
dtnsim.node[35].app.bundlesNumber = "24,6,16,1,2,6,20,5,3,6,10,1"
dtnsim.node[35].app.start = "80,59,85,12,88,19,19,32,63,1,9,5"
dtnsim.node[35].app.destinationEid = "158,117,201,144,25,46,144,227,18,27,181,194"
dtnsim.node[35].app.size = "100,50,200,500,50,100,50,100,100,500,200,500"
# Node 36 random traffic
dtnsim.node[36].app.enable = true
dtnsim.node[36].app.bundlesNumber = "1,18,11,18,11,6,1,19,3,6,4,1,1"
dtnsim.node[36].app.start = "5,50,48,69,38,86,99,98,19,36,78,75,89"
dtnsim.node[36].app.destinationEid = "188,34,31,76,75,94,13,44,73,88,185,174,42"
dtnsim.node[36].app.size = "200,200,100,100,500,200,200,100,500,100,500,50,50"
# Node 37 random traffic
dtnsim.node[37].app.enable = true
dtnsim.node[37].app.bundlesNumber = "13,11,11,7,19,10,5,19,1,2,2"
dtnsim.node[37].app.start = "9,100,91,90,64,67,38,28,74,62,59"
dtnsim.node[37].app.destinationEid = "183,193,149,238,215,116,53,148,170,118,121"
dtnsim.node[37].app.size = "50,500,200,100,500,100,500,50,50,50,500"
# Node 38 random traffic
dtnsim.node[38].app.enable = true
dtnsim.node[38].app.bundlesNumber = "10,24,16,25,14,2,1,5,2,1"
dtnsim.node[38].app.start = "85,9,15,22,78,17,24,62,2,66"
dtnsim.node[38].app.destinationEid = "97,10,87,105,216,218,82,56,49,195"
dtnsim.node[38].app.size = "100,500,50,50,50,50,200,500,100,50"
# Node 39 random traffic
dtnsim.node[39].app.enable = true
dtnsim.node[39].app.bundlesNumber = "15,17,4,18,9,5,10,17,3,2"
dtnsim.node[39].app.start = "27,26,96,19,85,45,59,10,81,63"
dtnsim.node[39].app.destinationEid = "20,1,199,132,153,23,161,144,82,138"
dtnsim.node[39].app.size = "50,500,200,200,100,200,100,100,200,50"
# Node 40 random traffic
dtnsim.node[40].app.enable = true
dtnsim.node[40].app.bundlesNumber = "24,3,5,4,13,9,21,4,1,4,3,3,6"
dtnsim.node[40].app.start = "33,22,41,52,55,24,1,64,91,15,69,69,48"
dtnsim.node[40].app.destinationEid = "182,73,14,181,110,101,234,12,111,169,233,147,227"
dtnsim.node[40].app.size = "500,100,100,200,200,50,50,200,200,200,200,100,100"
# Node 41 random traffic
dtnsim.node[41].app.enable = true
dtnsim.node[41].app.bundlesNumber = "21,16,16,3,21,7,12,2,2"
dtnsim.node[41].app.start = "32,25,85,51,20,13,41,62,63"
dtnsim.node[41].app.destinationEid = "202,29,132,111,180,187,64,10,180"
dtnsim.node[41].app.size = "200,500,500,100,500,50,50,500,50"
# Node 42 random traffic
dtnsim.node[42].app.enable = true
dtnsim.node[42].app.bundlesNumber = "8,24,22,25,11,4,1,4,1"
dtnsim.node[42].app.start = "31,89,77,61,23,53,14,72,9"
dtnsim.node[42].app.destinationEid = "60,144,201,75,206,228,178,95,220"
dtnsim.node[42].app.size = "200,200,500,100,200,100,500,50,50"
# Node 43 random traffic
dtnsim.node[43].app.enable = true
dtnsim.node[43].app.bundlesNumber = "3,17,22,15,9,16,14,4"
dtnsim.node[43].app.start = "33,24,69,40,45,81,50,34"
dtnsim.node[43].app.destinationEid = "155,82,64,49,145,72,149,210"
dtnsim.node[43].app.size = "500,200,500,50,500,500,500,200"
# Node 44 random traffic
dtnsim.node[44].app.enable = true
dtnsim.node[44].app.bundlesNumber = "14,19,3,18,3,10,16,7,4,1,5"
dtnsim.node[44].app.start = "74,11,90,77,67,49,80,18,40,34,11"
dtnsim.node[44].app.destinationEid = "208,15,76,218,81,8,34,191,217,83,48"
dtnsim.node[44].app.size = "200,100,100,100,50,100,50,100,200,500,500"
# Node 45 random traffic
dtnsim.node[45].app.enable = true
dtnsim.node[45].app.bundlesNumber = "20,19,25,9,2,20,1,1,2,1"
dtnsim.node[45].app.start = "30,31,96,75,9,74,66,70,16,83"
dtnsim.node[45].app.destinationEid = "214,203,93,64,162,115,173,103,179,218"
dtnsim.node[45].app.size = "100,200,500,100,100,500,50,100,200,500"
# Node 46 random traffic
dtnsim.node[46].app.enable = true
dtnsim.node[46].app.bundlesNumber = "20,7,20,25,17,1,5,4,1"
dtnsim.node[46].app.start = "90,75,29,36,51,73,77,86,86"
dtnsim.node[46].app.destinationEid = "53,113,201,116,211,111,141,82,233"
dtnsim.node[46].app.size = "500,200,50,200,200,100,500,50,200"
# Node 47 random traffic
dtnsim.node[47].app.enable = true
dtnsim.node[47].app.bundlesNumber = "15,12,17,13,19,7,1,1,2,9,1,3"
dtnsim.node[47].app.start = "92,24,49,10,10,94,48,15,88,67,27,44"
dtnsim.node[47].app.destinationEid = "55,70,21,7,106,79,1,110,169,188,10,150"
dtnsim.node[47].app.size = "500,100,500,500,50,500,100,50,50,500,500,500"
# Node 48 random traffic
dtnsim.node[48].app.enable = true
dtnsim.node[48].app.bundlesNumber = "6,15,11,7,16,7,22,12,4"
dtnsim.node[48].app.start = "74,53,86,26,88,98,26,32,58"
dtnsim.node[48].app.destinationEid = "96,42,220,11,190,223,146,96,59"
dtnsim.node[48].app.size = "50,100,50,50,200,100,500,50,200"
# Node 49 random traffic
dtnsim.node[49].app.enable = true
dtnsim.node[49].app.bundlesNumber = "6,23,11,18,25,6,1,8,2"
dtnsim.node[49].app.start = "76,77,1,52,20,34,40,1,94"
dtnsim.node[49].app.destinationEid = "167,42,188,109,214,60,125,235,174"
dtnsim.node[49].app.size = "100,500,200,200,200,200,500,100,200"
# Node 50 random traffic
dtnsim.node[50].app.enable = true
dtnsim.node[50].app.bundlesNumber = "25,3,5,24,18,24,1"
dtnsim.node[50].app.start = "64,26,98,36,87,3,78"
dtnsim.node[50].app.destinationEid = "169,185,206,100,130,223,184"
dtnsim.node[50].app.size = "50,200,200,50,50,50,200"
# Node 51 random traffic
dtnsim.node[51].app.enable = true
dtnsim.node[51].app.bundlesNumber = "1,21,12,8,16,16,15,3,3,2,2,1"
dtnsim.node[51].app.start = "94,86,5,71,85,48,77,28,69,23,44,13"
dtnsim.node[51].app.destinationEid = "169,109,122,34,72,213,126,8,68,83,181,69"
dtnsim.node[51].app.size = "50,200,200,100,200,200,50,100,200,500,100,50"
# Node 52 random traffic
dtnsim.node[52].app.enable = true
dtnsim.node[52].app.bundlesNumber = "21,24,14,14,19,1,3,4"
dtnsim.node[52].app.start = "74,85,81,71,19,51,44,30"
dtnsim.node[52].app.destinationEid = "91,105,181,164,192,105,104,117"
dtnsim.node[52].app.size = "50,100,500,500,50,50,500,500"
# Node 53 random traffic
dtnsim.node[53].app.enable = true
dtnsim.node[53].app.bundlesNumber = "24,25,12,20,4,6,5,1,1,1,1"
dtnsim.node[53].app.start = "68,79,33,3,11,49,49,94,1,29,65"
dtnsim.node[53].app.destinationEid = "51,77,165,240,105,126,99,224,80,225,62"
dtnsim.node[53].app.size = "500,50,200,500,100,500,50,50,500,500,50"
# Node 54 random traffic
dtnsim.node[54].app.enable = true
dtnsim.node[54].app.bundlesNumber = "22,10,13,11,23,16,2,3"
dtnsim.node[54].app.start = "92,84,98,50,19,62,35,6"
dtnsim.node[54].app.destinationEid = "180,81,2,99,155,162,143,154"
dtnsim.node[54].app.size = "500,50,100,100,50,50,100,100"
# Node 55 random traffic
dtnsim.node[55].app.enable = true
dtnsim.node[55].app.bundlesNumber = "7,17,5,19,12,22,8,5,5"
dtnsim.node[55].app.start = "40,19,58,59,56,57,48,42,64"
dtnsim.node[55].app.destinationEid = "163,59,75,174,88,148,65,232,172"
dtnsim.node[55].app.size = "100,100,50,50,500,200,50,100,200"
# Node 56 random traffic
dtnsim.node[56].app.enable = true
dtnsim.node[56].app.bundlesNumber = "22,25,3,24,15,1,4,2,3,1"
dtnsim.node[56].app.start = "13,61,40,21,76,54,91,74,21,50"
dtnsim.node[56].app.destinationEid = "40,213,111,177,147,201,52,18,196,184"
dtnsim.node[56].app.size = "50,100,50,100,50,50,100,100,500,500"
# Node 57 random traffic
dtnsim.node[57].app.enable = true
dtnsim.node[57].app.bundlesNumber = "4,19,8,14,13,4,19,12,7"
dtnsim.node[57].app.start = "48,65,77,88,26,14,17,38,96"
dtnsim.node[57].app.destinationEid = "215,184,40,120,166,194,34,41,232"
dtnsim.node[57].app.size = "200,50,200,100,200,100,50,50,100"
# Node 58 random traffic
dtnsim.node[58].app.enable = true
dtnsim.node[58].app.bundlesNumber = "19,22,5,23,9,21,1"
dtnsim.node[58].app.start = "6,57,15,44,99,92,15"
dtnsim.node[58].app.destinationEid = "218,146,211,67,59,169,185"
dtnsim.node[58].app.size = "200,500,100,50,50,500,200"
# Node 59 random traffic
dtnsim.node[59].app.enable = true
dtnsim.node[59].app.bundlesNumber = "10,1,19,25,17,6,18,2,1,1"
dtnsim.node[59].app.start = "69,87,80,30,26,100,19,57,88,52"
dtnsim.node[59].app.destinationEid = "94,54,210,193,206,143,174,132,174,232"
dtnsim.node[59].app.size = "200,200,200,200,100,100,500,100,100,200"
# Node 60 random traffic
dtnsim.node[60].app.enable = true
dtnsim.node[60].app.bundlesNumber = "14,1,10,2,8,11,5,5,10,4,16,7,5,2"
dtnsim.node[60].app.start = "2,85,28,86,10,4,41,84,64,19,79,81,33,55"
dtnsim.node[60].app.destinationEid = "193,23,85,13,109,199,141,41,15,9,97,209,85,142"
dtnsim.node[60].app.size = "500,100,200,100,200,50,100,100,200,200,200,50,50,50"
# Node 61 random traffic
dtnsim.node[61].app.enable = true
dtnsim.node[61].app.bundlesNumber = "6,6,5,18,2,20,23,11,3,1,5"
dtnsim.node[61].app.start = "36,73,50,26,82,22,87,10,63,78,54"
dtnsim.node[61].app.destinationEid = "93,128,43,51,173,219,168,99,159,226,175"
dtnsim.node[61].app.size = "50,500,200,100,500,50,100,50,50,50,200"
# Node 62 random traffic
dtnsim.node[62].app.enable = true
dtnsim.node[62].app.bundlesNumber = "16,20,22,18,10,4,5,1,3,1"
dtnsim.node[62].app.start = "49,48,69,27,3,63,68,77,78,54"
dtnsim.node[62].app.destinationEid = "100,116,2,77,212,212,47,67,121,179"
dtnsim.node[62].app.size = "100,500,100,50,200,50,50,200,500,100"
# Node 63 random traffic
dtnsim.node[63].app.enable = true
dtnsim.node[63].app.bundlesNumber = "25,3,3,5,24,24,15,1"
dtnsim.node[63].app.start = "26,89,4,52,85,44,87,59"
dtnsim.node[63].app.destinationEid = "65,11,62,231,226,151,23,187"
dtnsim.node[63].app.size = "100,50,500,500,100,100,200,50"
# Node 64 random traffic
dtnsim.node[64].app.enable = true
dtnsim.node[64].app.bundlesNumber = "6,22,19,6,9,25,5,4,3,1"
dtnsim.node[64].app.start = "30,16,61,34,41,83,15,32,13,45"
dtnsim.node[64].app.destinationEid = "198,51,208,159,171,61,98,229,21,240"
dtnsim.node[64].app.size = "50,500,50,500,50,100,200,200,100,500"
# Node 65 random traffic
dtnsim.node[65].app.enable = true
dtnsim.node[65].app.bundlesNumber = "16,24,4,12,13,4,3,9,12,1,1,1"
dtnsim.node[65].app.start = "46,71,4,37,50,2,21,68,61,41,74,87"
dtnsim.node[65].app.destinationEid = "10,82,95,10,128,119,209,151,220,44,183,215"
dtnsim.node[65].app.size = "200,500,100,500,50,200,100,50,50,500,500,200"
# Node 66 random traffic
dtnsim.node[66].app.enable = true
dtnsim.node[66].app.bundlesNumber = "25,21,14,19,4,12,5"
dtnsim.node[66].app.start = "62,45,96,76,48,70,12"
dtnsim.node[66].app.destinationEid = "67,88,43,160,93,116,104"
dtnsim.node[66].app.size = "500,50,500,100,200,50,50"
# Node 67 random traffic
dtnsim.node[67].app.enable = true
dtnsim.node[67].app.bundlesNumber = "15,12,25,13,7,12,12,2,1,1"
dtnsim.node[67].app.start = "98,25,100,89,81,29,70,47,44,37"
dtnsim.node[67].app.destinationEid = "55,80,8,102,231,138,132,24,223,79"
dtnsim.node[67].app.size = "100,100,200,50,50,100,100,100,200,50"
# Node 68 random traffic
dtnsim.node[68].app.enable = true
dtnsim.node[68].app.bundlesNumber = "20,17,4,18,11,3,9,6,8,2,1,1"
dtnsim.node[68].app.start = "69,8,39,89,94,10,14,28,12,48,67,87"
dtnsim.node[68].app.destinationEid = "118,136,57,122,109,37,53,216,176,111,20,56"
dtnsim.node[68].app.size = "200,50,200,500,500,500,50,500,50,200,200,200"
# Node 69 random traffic
dtnsim.node[69].app.enable = true
dtnsim.node[69].app.bundlesNumber = "17,24,3,8,13,4,20,3,6,1,1"
dtnsim.node[69].app.start = "43,5,30,45,48,88,99,98,88,36,23"
dtnsim.node[69].app.destinationEid = "9,49,52,90,125,132,166,32,136,209,2"
dtnsim.node[69].app.size = "50,200,200,200,50,500,100,50,100,200,100"
# Node 70 random traffic
dtnsim.node[70].app.enable = true
dtnsim.node[70].app.bundlesNumber = "12,8,22,16,19,20,3"
dtnsim.node[70].app.start = "29,42,24,57,49,50,70"
dtnsim.node[70].app.destinationEid = "223,92,229,115,108,145,133"
dtnsim.node[70].app.size = "100,100,100,100,200,50,500"
# Node 71 random traffic
dtnsim.node[71].app.enable = true
dtnsim.node[71].app.bundlesNumber = "25,24,11,23,5,7,4,1"
dtnsim.node[71].app.start = "7,48,6,41,47,32,52,27"
dtnsim.node[71].app.destinationEid = "80,133,117,237,225,89,44,33"
dtnsim.node[71].app.size = "500,100,200,50,500,500,100,50"
# Node 72 random traffic
dtnsim.node[72].app.enable = true
dtnsim.node[72].app.bundlesNumber = "4,24,7,20,25,4,10,2,2,1,1"
dtnsim.node[72].app.start = "96,42,34,79,10,93,67,40,41,14,71"
dtnsim.node[72].app.destinationEid = "199,40,20,141,198,196,22,183,86,125,29"
dtnsim.node[72].app.size = "200,50,100,500,100,50,100,500,50,100,500"
# Node 73 random traffic
dtnsim.node[73].app.enable = true
dtnsim.node[73].app.bundlesNumber = "11,15,18,16,20,4,13,1,2"
dtnsim.node[73].app.start = "78,52,43,56,39,2,51,75,43"
dtnsim.node[73].app.destinationEid = "122,158,136,98,218,11,145,80,205"
dtnsim.node[73].app.size = "100,500,100,50,100,200,50,500,50"
# Node 74 random traffic
dtnsim.node[74].app.enable = true
dtnsim.node[74].app.bundlesNumber = "21,18,7,16,17,12,7,1,1"
dtnsim.node[74].app.start = "8,60,77,100,86,15,68,7,2"
dtnsim.node[74].app.destinationEid = "216,56,48,220,48,233,126,140,115"
dtnsim.node[74].app.size = "100,200,100,500,50,100,200,200,200"
# Node 75 random traffic
dtnsim.node[75].app.enable = true
dtnsim.node[75].app.bundlesNumber = "15,16,24,12,13,2,15,3"
dtnsim.node[75].app.start = "65,48,34,10,99,49,21,58"
dtnsim.node[75].app.destinationEid = "230,94,230,3,93,167,172,27"
dtnsim.node[75].app.size = "500,500,500,200,100,50,500,50"
# Node 76 random traffic
dtnsim.node[76].app.enable = true
dtnsim.node[76].app.bundlesNumber = "10,16,9,16,5,22,20,2"
dtnsim.node[76].app.start = "52,42,100,47,94,53,18,73"
dtnsim.node[76].app.destinationEid = "6,212,93,89,188,174,120,218"
dtnsim.node[76].app.size = "200,100,100,200,50,500,500,500"
# Node 77 random traffic
dtnsim.node[77].app.enable = true
dtnsim.node[77].app.bundlesNumber = "13,5,24,7,25,1,9,11,5"
dtnsim.node[77].app.start = "11,22,22,79,14,79,34,40,13"
dtnsim.node[77].app.destinationEid = "91,174,177,194,137,46,65,41,131"
dtnsim.node[77].app.size = "200,50,100,200,100,100,500,200,100"
# Node 78 random traffic
dtnsim.node[78].app.enable = true
dtnsim.node[78].app.bundlesNumber = "22,20,23,15,18,1,1"
dtnsim.node[78].app.start = "79,64,36,92,21,2,7"
dtnsim.node[78].app.destinationEid = "68,142,157,202,205,116,123"
dtnsim.node[78].app.size = "50,100,100,100,200,200,500"
# Node 79 random traffic
dtnsim.node[79].app.enable = true
dtnsim.node[79].app.bundlesNumber = "13,18,8,13,6,3,3,15,11,10"
dtnsim.node[79].app.start = "96,57,67,71,10,57,76,78,86,90"
dtnsim.node[79].app.destinationEid = "12,118,35,142,166,215,148,82,8,45"
dtnsim.node[79].app.size = "200,100,100,500,100,200,200,100,50,200"
# Node 80 random traffic
dtnsim.node[80].app.enable = true
dtnsim.node[80].app.bundlesNumber = "13,21,15,22,8,18,1,2"
dtnsim.node[80].app.start = "55,70,28,61,20,8,19,21"
dtnsim.node[80].app.destinationEid = "18,85,198,166,170,101,149,145"
dtnsim.node[80].app.size = "200,100,50,50,500,50,50,500"
# Node 81 random traffic
dtnsim.node[81].app.enable = true
dtnsim.node[81].app.bundlesNumber = "9,20,19,20,13,3,4,11,1"
dtnsim.node[81].app.start = "18,37,27,7,13,77,38,8,15"
dtnsim.node[81].app.destinationEid = "73,30,176,58,77,72,21,116,220"
dtnsim.node[81].app.size = "100,100,100,100,100,100,500,100,200"
# Node 82 random traffic
dtnsim.node[82].app.enable = true
dtnsim.node[82].app.bundlesNumber = "18,25,19,7,21,8,2"
dtnsim.node[82].app.start = "84,55,84,30,28,32,55"
dtnsim.node[82].app.destinationEid = "62,80,12,41,142,223,29"
dtnsim.node[82].app.size = "500,50,50,500,50,500,500"
# Node 83 random traffic
dtnsim.node[83].app.enable = true
dtnsim.node[83].app.bundlesNumber = "16,22,2,14,19,8,6,2,3,6,1,1"
dtnsim.node[83].app.start = "56,64,91,10,44,7,92,15,45,98,44,82"
dtnsim.node[83].app.destinationEid = "85,151,78,105,71,216,70,77,173,57,172,14"
dtnsim.node[83].app.size = "500,200,100,100,50,200,50,100,50,100,200,500"
# Node 84 random traffic
dtnsim.node[84].app.enable = true
dtnsim.node[84].app.bundlesNumber = "3,20,2,5,24,22,24"
dtnsim.node[84].app.start = "93,12,83,78,54,44,51"
dtnsim.node[84].app.destinationEid = "234,25,19,151,43,190,220"
dtnsim.node[84].app.size = "100,200,100,100,500,200,500"
# Node 85 random traffic
dtnsim.node[85].app.enable = true
dtnsim.node[85].app.bundlesNumber = "13,5,13,4,7,2,8,19,13,3,13"
dtnsim.node[85].app.start = "84,85,17,84,15,21,92,55,75,85,94"
dtnsim.node[85].app.destinationEid = "202,71,132,89,124,190,72,74,119,239,42"
dtnsim.node[85].app.size = "100,50,500,50,500,500,100,100,500,50,200"
# Node 86 random traffic
dtnsim.node[86].app.enable = true
dtnsim.node[86].app.bundlesNumber = "20,15,15,25,18,4,3"
dtnsim.node[86].app.start = "33,30,83,91,95,21,22"
dtnsim.node[86].app.destinationEid = "92,202,47,190,45,45,83"
dtnsim.node[86].app.size = "500,200,200,500,50,200,100"
# Node 87 random traffic
dtnsim.node[87].app.enable = true
dtnsim.node[87].app.bundlesNumber = "23,6,8,22,1,21,9,8,2"
dtnsim.node[87].app.start = "25,92,10,72,51,54,72,14,8"
dtnsim.node[87].app.destinationEid = "181,22,22,120,96,29,190,107,176"
dtnsim.node[87].app.size = "200,50,100,50,50,50,200,200,100"
# Node 88 random traffic
dtnsim.node[88].app.enable = true
dtnsim.node[88].app.bundlesNumber = "8,12,12,5,23,16,8,1,10,1,2,2"
dtnsim.node[88].app.start = "46,92,8,22,13,37,58,2,56,25,76,77"
dtnsim.node[88].app.destinationEid = "151,119,21,171,43,63,145,188,232,210,112,4"
dtnsim.node[88].app.size = "500,200,200,100,500,500,200,100,100,50,500,500"
# Node 89 random traffic
dtnsim.node[89].app.enable = true
dtnsim.node[89].app.bundlesNumber = "23,23,7,17,25,2,1,2"
dtnsim.node[89].app.start = "68,87,72,57,49,57,87,54"
dtnsim.node[89].app.destinationEid = "4,27,70,133,204,183,44,132"
dtnsim.node[89].app.size = "100,100,200,50,500,500,500,200"
# Node 90 random traffic
dtnsim.node[90].app.enable = true
dtnsim.node[90].app.bundlesNumber = "21,12,3,20,18,20,4,1,1"
dtnsim.node[90].app.start = "14,92,96,47,10,96,83,91,77"
dtnsim.node[90].app.destinationEid = "40,212,138,94,153,208,185,75,60"
dtnsim.node[90].app.size = "100,50,50,50,100,50,100,200,100"
# Node 91 random traffic
dtnsim.node[91].app.enable = true
dtnsim.node[91].app.bundlesNumber = "20,14,25,16,20,4,1"
dtnsim.node[91].app.start = "81,40,44,71,14,8,14"
dtnsim.node[91].app.destinationEid = "130,147,240,197,228,213,27"
dtnsim.node[91].app.size = "50,100,50,500,200,500,500"
# Node 92 random traffic
dtnsim.node[92].app.enable = true
dtnsim.node[92].app.bundlesNumber = "7,16,5,13,2,2,9,19,11,13,1,2"
dtnsim.node[92].app.start = "53,86,34,9,71,60,8,5,77,72,60,55"
dtnsim.node[92].app.destinationEid = "128,173,178,146,103,99,82,112,181,49,162,113"
dtnsim.node[92].app.size = "200,100,100,50,100,500,100,50,50,500,500,200"
# Node 93 random traffic
dtnsim.node[93].app.enable = true
dtnsim.node[93].app.bundlesNumber = "17,9,8,21,12,6,17,6,3,1"
dtnsim.node[93].app.start = "43,61,60,23,57,89,65,35,2,1"
dtnsim.node[93].app.destinationEid = "155,6,78,235,157,8,73,130,227,4"
dtnsim.node[93].app.size = "200,100,200,50,50,100,200,500,50,500"