[General]
network = src.dtnsim										
repeat = 1
allow-object-stealing-on-deletion = true

# Simulation end time
sim-time-limit = 84600s

# Nodes quantity (identifiers (EiDs) matches their index, EiD=0 is ignored)			
dtnsim.nodesNumber = 180
dtnsim.node[*].icon = "satellite"

# Nodes's failure rates
dtnsim.node[*].fault.enable = true
dtnsim.node[*].fault.meanTTF = 40s
dtnsim.node[*].fault.meanTTR = 10s

# Mobility
dtnsim.node[*].hasMobility = true
dtnsim.node[*].noradModule.satIndex = parentIndex()
dtnsim.node[*].noradModule.satName = "sat"
**.updateInterval = 20s
**.numOfSats = 180
**.satPerPlane = 15
**.altitude = 540
**.planes = 12
**.phaseOffset = 7

dtnsim.node[*].dtn.routing = "antop"
dtnsim.node[*].dtn.printRoutingDebug = true

# --- Random Traffic Configuration ---
# Node 1 random traffic
dtnsim.node[1].app.enable = true
dtnsim.node[1].app.bundlesNumber = "1,1,1,1,1,1,1,1,1,1,1,1,1,1,1,1,1,1,1,1,1,1,1,1,1,1,1,1,1,1,1,1,1,1,1,1,1,1,1,1,1,1,1,1,1,1,1,1,1,1,1,1,1,1,1,1,1,1,1,1,1,1,1,1,1,1,1,1,1,1,1,1,1,1,1,1,1,1,1,1,1,1,1,1,1,1,1,1,1,1,1,1,1,1,1,1,1,1,1,1"
dtnsim.node[1].app.start = "13,6,1,6,7,7,1,9,12,10,18,18,7,10,18,20,5,15,16,15,15,19,2,11,11,17,6,4,10,1,5,6,3,17,14,19,4,7,18,20,9,8,18,3,15,11,3,19,11,7,12,6,14,17,11,1,4,5,10,13,16,1,3,18,6,1,15,17,3,2,17,7,12,7,9,13,18,15,5,6,13,9,13,14,20,3,3,10,14,14,2,3,14,15,12,1,8,13,3,6"
dtnsim.node[1].app.destinationEid = "171,16,57,174,42,28,65,141,88,164,19,161,125,175,67,159,165,3,67,117,118,175,70,93,64,92,24,119,175,101,75,23,171,34,101,66,15,12,102,143,100,97,70,84,76,27,79,115,106,2,148,25,18,176,23,97,69,123,154,125,104,13,98,75,156,9,67,179,45,7,96,98,124,28,87,162,20,149,51,74,127,47,94,148,69,37,149,46,89,133,170,74,180,26,79,61,62,157,43,18"
dtnsim.node[1].app.size = "50,200,50,50,200,100,100,500,100,200,500,500,100,50,200,50,100,50,100,200,50,50,200,500,50,200,50,200,100,100,50,200,50,100,200,100,200,500,50,100,100,500,100,100,200,500,500,50,50,200,200,100,50,500,500,200,50,200,500,50,50,50,500,500,50,500,200,100,50,100,100,50,50,500,200,100,200,200,200,100,500,200,50,50,100,500,100,500,500,200,200,50,100,50,500,50,50,100,200,200"
        # Node 2 random traffic
dtnsim.node[2].app.enable = true
dtnsim.node[2].app.bundlesNumber = "1,1,1,1,1,1,1,1,1,1,1,1,1,1,1,1,1,1,1,1,1,1,1,1,1,1,1,1,1,1,1,1,1,1,1,1,1,1,1,1,1,1,1,1,1,1,1,1,1,1,1,1,1,1,1,1,1,1,1,1,1,1,1,1,1,1,1,1,1,1,1,1,1,1,1,1,1,1,1,1,1,1,1,1,1,1,1,1,1,1,1,1,1,1,1,1,1,1,1,1"
dtnsim.node[2].app.start = "2,19,8,5,16,16,10,11,2,9,3,18,19,14,5,14,17,13,17,3,12,8,11,5,11,20,12,18,9,3,17,15,11,6,11,11,10,9,20,13,5,13,13,9,9,12,10,8,1,11,1,7,20,9,2,17,12,4,11,10,6,16,1,19,14,1,8,14,17,7,19,1,8,10,6,10,7,14,5,6,16,1,17,6,8,17,1,17,2,4,11,4,14,18,4,17,9,13,7,19"
dtnsim.node[2].app.destinationEid = "128,127,178,136,14,38,133,146,16,178,108,166,88,162,169,139,112,15,5,64,120,44,170,168,29,167,151,32,115,50,99,32,143,113,37,63,178,139,77,120,159,94,1,143,145,139,171,170,94,55,169,147,100,9,90,91,103,35,80,14,104,5,16,105,122,160,77,77,69,155,66,58,126,100,73,64,49,1,9,176,90,83,94,117,82,53,86,133,17,165,112,119,67,149,57,75,29,41,154,66"
dtnsim.node[2].app.size = "200,500,200,200,500,500,50,200,500,200,50,200,50,100,200,100,500,500,100,500,100,100,500,200,100,50,100,500,100,100,50,100,200,100,100,100,500,500,500,500,100,200,500,100,500,50,100,500,200,200,200,50,200,200,500,500,100,200,200,500,500,50,50,500,100,200,100,500,200,50,200,200,50,200,100,200,200,500,100,100,200,100,50,50,100,100,200,100,50,50,500,200,50,200,100,200,100,100,500,200"
        # Node 3 random traffic
dtnsim.node[3].app.enable = true
dtnsim.node[3].app.bundlesNumber = "1,1,1,1,1,1,1,1,1,1,1,1,1,1,1,1,1,1,1,1,1,1,1,1,1,1,1,1,1,1,1,1,1,1,1,1,1,1,1,1,1,1,1,1,1,1,1,1,1,1,1,1,1,1,1,1,1,1,1,1,1,1,1,1,1,1,1,1,1,1,1,1,1,1,1,1,1,1,1,1,1,1,1,1,1,1,1,1,1,1,1,1,1,1,1,1,1,1,1,1"
dtnsim.node[3].app.start = "15,2,6,19,13,1,7,5,13,1,19,1,20,10,5,16,5,19,11,14,15,14,1,20,9,6,2,14,1,11,9,16,12,5,9,4,4,14,4,18,1,15,15,8,12,13,12,2,18,16,8,13,19,2,11,5,4,7,10,12,19,1,18,14,12,4,9,8,19,2,18,15,10,14,7,17,15,11,5,18,13,10,11,2,8,16,10,9,7,7,11,6,7,17,10,16,16,7,20,1"
dtnsim.node[3].app.destinationEid = "171,72,168,49,120,79,102,163,7,102,4,42,128,101,145,90,141,139,167,109,71,74,9,82,104,40,91,2,134,158,48,63,16,178,18,176,35,75,12,161,156,27,65,74,2,76,16,176,55,6,85,53,70,60,176,52,36,47,170,32,75,128,59,124,71,123,131,171,86,157,87,31,118,81,12,52,33,38,133,106,127,57,97,11,104,133,20,157,117,13,27,34,142,35,48,5,55,144,32,51"
dtnsim.node[3].app.size = "50,50,50,50,500,500,200,500,500,100,100,500,500,200,500,50,100,50,100,100,50,200,500,100,500,500,50,200,200,200,100,200,200,200,100,50,200,100,500,500,200,200,50,200,500,50,500,500,50,500,500,50,200,50,200,500,50,500,100,200,100,500,500,500,100,200,100,500,200,50,200,500,50,200,100,500,500,200,200,200,500,200,100,100,200,500,200,100,100,200,100,200,200,50,500,100,100,200,50,200"
        # Node 4 random traffic
dtnsim.node[4].app.enable = true
dtnsim.node[4].app.bundlesNumber = "1,1,1,1,1,1,1,1,1,1,1,1,1,1,1,1,1,1,1,1,1,1,1,1,1,1,1,1,1,1,1,1,1,1,1,1,1,1,1,1,1,1,1,1,1,1,1,1,1,1,1,1,1,1,1,1,1,1,1,1,1,1,1,1,1,1,1,1,1,1,1,1,1,1,1,1,1,1,1,1,1,1,1,1,1,1,1,1,1,1,1,1,1,1,1,1,1,1,1,1"
dtnsim.node[4].app.start = "19,13,9,18,17,6,2,4,18,4,13,9,12,11,3,14,17,20,8,3,11,9,17,7,19,5,13,13,9,1,14,9,12,19,6,18,2,19,1,8,13,13,16,5,6,9,15,13,13,15,7,4,4,7,9,18,14,7,5,11,6,6,3,16,4,13,14,8,5,14,2,18,20,7,20,3,7,15,17,5,13,3,11,16,19,2,16,14,7,4,3,1,3,12,16,4,15,13,9,15"
dtnsim.node[4].app.destinationEid = "170,89,61,35,71,23,174,3,85,167,10,35,43,85,172,150,123,6,154,149,1,65,134,83,89,8,18,47,87,134,140,79,49,65,161,59,5,124,162,63,15,28,119,14,100,108,170,131,86,158,146,137,46,137,164,132,121,83,52,160,90,25,113,6,62,139,93,10,127,176,165,116,61,159,61,59,26,112,86,154,39,76,78,51,44,30,54,71,8,135,176,127,140,62,138,177,157,178,121,52"
dtnsim.node[4].app.size = "500,500,200,200,100,50,50,100,200,200,50,500,200,50,50,50,200,200,100,100,50,100,500,500,100,500,200,50,100,200,50,50,100,500,50,500,500,200,200,200,50,100,50,200,500,500,500,50,100,50,500,500,100,500,200,500,100,500,100,50,50,500,500,500,100,100,100,200,500,100,500,50,100,100,100,500,200,50,500,200,50,50,500,200,50,50,200,50,50,100,500,100,100,100,50,50,100,500,100,200"
        # Node 5 random traffic
dtnsim.node[5].app.enable = true
dtnsim.node[5].app.bundlesNumber = "1,1,1,1,1,1,1,1,1,1,1,1,1,1,1,1,1,1,1,1,1,1,1,1,1,1,1,1,1,1,1,1,1,1,1,1,1,1,1,1,1,1,1,1,1,1,1,1,1,1,1,1,1,1,1,1,1,1,1,1,1,1,1,1,1,1,1,1,1,1,1,1,1,1,1,1,1,1,1,1,1,1,1,1,1,1,1,1,1,1,1,1,1,1,1,1,1,1,1,1"
dtnsim.node[5].app.start = "17,3,17,4,2,7,9,4,2,17,12,8,18,20,5,6,6,17,8,3,14,13,7,5,3,3,1,13,7,19,1,2,3,13,4,6,19,18,13,14,1,1,1,6,4,12,7,3,15,17,13,8,5,1,5,18,17,4,8,18,16,11,9,13,18,5,9,18,7,19,16,9,15,2,17,1,16,16,5,8,9,2,10,12,11,15,7,2,14,8,6,20,12,4,19,15,18,2,2,4"
dtnsim.node[5].app.destinationEid = "127,24,64,140,123,38,167,94,135,158,172,21,78,17,82,28,73,34,174,46,13,82,172,105,16,31,60,8,82,41,96,47,93,103,152,65,115,159,80,91,57,90,52,148,120,80,106,174,37,57,162,71,82,133,69,151,90,131,88,121,45,71,118,172,11,117,166,20,175,58,101,87,60,142,15,96,37,130,112,155,141,13,169,49,41,120,114,15,170,23,31,38,23,88,157,24,75,31,41,19"
dtnsim.node[5].app.size = "500,50,500,200,200,200,200,200,200,50,200,100,50,500,50,100,500,200,200,50,100,50,500,100,500,200,200,100,200,100,50,100,200,500,500,100,500,500,500,100,200,500,500,500,100,200,100,100,100,200,100,100,200,50,100,100,100,50,200,200,50,200,100,200,200,100,50,200,50,50,200,50,200,500,100,100,100,500,100,500,100,100,50,50,200,50,100,200,500,200,500,500,500,200,200,500,500,50,100,200"
        # Node 6 random traffic
dtnsim.node[6].app.enable = true
dtnsim.node[6].app.bundlesNumber = "1,1,1,1,1,1,1,1,1,1,1,1,1,1,1,1,1,1,1,1,1,1,1,1,1,1,1,1,1,1,1,1,1,1,1,1,1,1,1,1,1,1,1,1,1,1,1,1,1,1,1,1,1,1,1,1,1,1,1,1,1,1,1,1,1,1,1,1,1,1,1,1,1,1,1,1,1,1,1,1,1,1,1,1,1,1,1,1,1,1,1,1,1,1,1,1,1,1,1,1"
dtnsim.node[6].app.start = "8,2,7,13,16,5,18,2,3,19,15,3,1,7,17,12,11,1,3,5,9,20,6,5,13,8,13,12,3,9,8,6,20,5,5,17,9,13,6,2,3,9,8,7,20,10,10,4,9,8,8,20,13,7,17,13,6,15,11,9,8,15,18,11,13,14,20,10,18,10,2,12,9,7,13,5,10,11,20,10,10,9,14,10,16,2,2,3,18,17,2,19,10,7,5,3,5,2,9,11"
dtnsim.node[6].app.destinationEid = "132,71,23,18,70,63,162,157,51,158,20,75,118,31,151,120,161,147,82,73,53,87,81,123,93,83,100,118,33,77,174,35,77,102,166,64,24,145,1,18,120,165,38,168,27,50,147,149,167,165,40,126,135,56,19,12,179,135,58,20,7,113,51,101,29,49,82,111,14,14,52,63,106,160,126,115,119,76,25,61,140,176,107,1,156,7,34,69,42,121,56,78,153,139,47,126,166,114,38,5"
dtnsim.node[6].app.size = "50,100,200,500,50,500,100,50,500,500,200,500,100,500,100,200,50,200,100,200,100,500,50,500,500,50,200,50,50,500,100,500,50,100,100,50,500,200,50,200,100,100,200,500,50,100,50,500,200,50,200,50,50,50,200,100,500,500,500,200,100,100,500,500,200,100,200,50,500,50,500,100,50,50,100,200,200,500,100,500,50,50,200,100,500,50,100,50,500,500,500,200,500,50,100,50,200,100,100,200"
        # Node 7 random traffic
dtnsim.node[7].app.enable = true
dtnsim.node[7].app.bundlesNumber = "1,1,1,1,1,1,1,1,1,1,1,1,1,1,1,1,1,1,1,1,1,1,1,1,1,1,1,1,1,1,1,1,1,1,1,1,1,1,1,1,1,1,1,1,1,1,1,1,1,1,1,1,1,1,1,1,1,1,1,1,1,1,1,1,1,1,1,1,1,1,1,1,1,1,1,1,1,1,1,1,1,1,1,1,1,1,1,1,1,1,1,1,1,1,1,1,1,1,1,1"
dtnsim.node[7].app.start = "20,15,7,3,20,8,6,5,4,3,19,19,18,8,18,6,11,11,5,15,17,10,16,9,2,15,16,4,7,17,14,8,19,4,3,11,19,13,4,1,3,11,7,18,10,17,20,1,9,9,1,5,17,17,9,20,20,14,9,12,9,5,4,17,12,19,3,7,5,18,13,13,2,12,8,5,9,9,8,11,8,18,7,19,10,5,13,10,9,6,10,15,13,15,6,7,9,11,5,19"
dtnsim.node[7].app.destinationEid = "70,52,102,63,167,28,140,81,14,89,15,162,69,25,31,92,98,93,51,14,168,156,38,48,133,71,122,24,156,75,159,124,49,54,149,69,14,99,95,14,69,122,4,131,50,174,118,109,121,103,39,146,89,51,120,147,101,97,25,140,45,132,101,168,88,87,167,71,75,33,136,12,178,99,175,31,79,151,63,158,147,91,34,161,160,131,33,47,39,39,31,166,35,45,96,31,129,68,139,77"
dtnsim.node[7].app.size = "100,500,100,500,100,200,100,50,50,500,100,500,50,200,200,500,500,500,500,500,200,100,50,500,500,200,50,50,50,200,500,50,200,500,200,100,200,100,500,500,50,100,200,200,50,200,50,500,500,200,50,50,200,500,100,50,50,50,500,500,100,200,50,500,50,200,100,100,200,50,500,500,200,50,100,50,50,200,50,200,500,500,200,500,50,500,500,100,500,500,500,100,200,100,500,500,100,50,100,500"
        # Node 8 random traffic
dtnsim.node[8].app.enable = true
dtnsim.node[8].app.bundlesNumber = "1,1,1,1,1,1,1,1,1,1,1,1,1,1,1,1,1,1,1,1,1,1,1,1,1,1,1,1,1,1,1,1,1,1,1,1,1,1,1,1,1,1,1,1,1,1,1,1,1,1,1,1,1,1,1,1,1,1,1,1,1,1,1,1,1,1,1,1,1,1,1,1,1,1,1,1,1,1,1,1,1,1,1,1,1,1,1,1,1,1,1,1,1,1,1,1,1,1,1,1"
dtnsim.node[8].app.start = "7,3,10,20,13,2,15,11,2,17,1,2,3,14,6,19,17,2,6,2,14,8,7,18,7,19,15,2,5,20,9,4,18,1,12,18,10,18,18,9,6,9,9,17,11,11,6,14,12,8,12,4,2,5,16,11,3,9,9,11,16,7,10,3,18,6,1,10,9,20,3,20,18,18,14,17,4,6,19,10,14,6,15,5,15,4,20,2,8,1,3,12,9,20,8,18,17,13,3,16"
dtnsim.node[8].app.destinationEid = "110,99,91,138,150,119,150,51,167,82,11,178,123,42,161,97,24,40,53,32,93,131,33,153,44,70,45,112,133,4,30,117,55,131,135,62,84,136,57,85,73,88,91,10,170,129,111,141,88,144,163,166,113,96,88,28,151,165,13,102,126,157,168,41,177,11,180,37,29,113,6,133,151,31,11,47,130,41,50,54,54,28,96,2,56,57,87,98,155,104,103,86,109,166,176,3,170,162,127,180"
dtnsim.node[8].app.size = "50,50,500,50,500,200,50,500,100,200,50,500,100,50,200,500,200,100,200,500,500,50,100,200,500,50,50,500,100,50,200,50,500,500,200,100,500,100,100,50,100,50,200,50,100,100,100,100,50,100,500,200,200,50,200,500,50,50,500,50,100,500,100,500,50,500,500,50,100,500,100,50,100,100,200,200,200,100,200,200,500,500,100,50,50,500,500,500,100,100,100,200,500,200,50,50,100,50,50,100"
        # Node 9 random traffic
dtnsim.node[9].app.enable = true
dtnsim.node[9].app.bundlesNumber = "1,1,1,1,1,1,1,1,1,1,1,1,1,1,1,1,1,1,1,1,1,1,1,1,1,1,1,1,1,1,1,1,1,1,1,1,1,1,1,1,1,1,1,1,1,1,1,1,1,1,1,1,1,1,1,1,1,1,1,1,1,1,1,1,1,1,1,1,1,1,1,1,1,1,1,1,1,1,1,1,1,1,1,1,1,1,1,1,1,1,1,1,1,1,1,1,1,1,1,1"
dtnsim.node[9].app.start = "12,12,5,1,8,14,17,16,15,12,10,6,5,14,4,11,6,15,18,5,9,14,12,8,8,4,6,13,4,1,19,12,7,15,2,20,20,17,19,5,7,2,4,14,1,3,8,16,7,18,4,14,6,18,1,16,3,8,11,17,14,4,5,14,1,8,13,17,20,2,7,7,20,4,2,19,1,10,13,20,8,1,20,4,20,1,10,13,1,7,16,8,8,16,6,10,16,20,17,18"
dtnsim.node[9].app.destinationEid = "127,172,26,15,25,48,51,171,8,115,97,132,47,14,109,14,165,16,154,142,176,61,19,3,104,17,65,153,122,31,7,58,156,147,137,144,57,41,4,137,116,28,180,75,33,63,79,132,125,78,161,118,61,167,83,156,144,24,141,165,3,82,53,149,111,41,78,29,83,28,2,11,178,144,146,153,113,161,173,129,63,26,178,164,113,24,145,156,17,33,26,68,140,161,180,126,74,17,70,124"
dtnsim.node[9].app.size = "500,100,100,200,500,100,500,200,100,200,500,500,50,500,100,500,50,200,100,500,200,50,500,200,50,100,500,200,200,50,200,100,200,200,500,100,100,500,500,50,100,100,50,500,200,100,100,100,500,100,100,500,100,50,200,200,500,100,50,50,50,50,50,200,200,50,100,500,500,100,500,100,100,200,100,500,50,200,500,100,200,100,500,100,50,500,100,200,200,500,100,100,200,200,50,500,500,100,100,100"
        # Node 10 random traffic
dtnsim.node[10].app.enable = true
dtnsim.node[10].app.bundlesNumber = "1,1,1,1,1,1,1,1,1,1,1,1,1,1,1,1,1,1,1,1,1,1,1,1,1,1,1,1,1,1,1,1,1,1,1,1,1,1,1,1,1,1,1,1,1,1,1,1,1,1,1,1,1,1,1,1,1,1,1,1,1,1,1,1,1,1,1,1,1,1,1,1,1,1,1,1,1,1,1,1,1,1,1,1,1,1,1,1,1,1,1,1,1,1,1,1,1,1,1,1"
dtnsim.node[10].app.start = "6,5,9,9,8,7,11,5,13,2,4,14,11,16,9,9,11,9,3,1,7,9,13,2,20,19,6,8,9,5,20,2,10,2,11,19,14,15,7,7,16,10,18,4,3,20,17,9,2,19,19,16,20,9,11,2,1,11,14,12,16,10,12,18,16,15,18,5,13,4,4,14,10,12,12,19,18,11,5,17,20,6,2,6,10,18,4,14,16,10,4,8,17,7,12,3,2,19,17,11"
dtnsim.node[10].app.destinationEid = "113,105,1,150,4,55,35,45,14,62,146,74,103,88,50,5,105,171,1,32,17,172,149,5,170,157,88,166,64,33,106,19,127,7,145,178,30,49,14,20,93,44,124,135,29,13,99,62,46,81,49,110,102,25,161,147,143,171,93,118,87,60,98,99,59,84,102,115,60,53,142,3,81,19,81,11,96,75,67,77,129,31,48,128,99,160,127,174,11,96,59,136,101,31,5,17,69,29,84,13"
dtnsim.node[10].app.size = "50,50,50,200,200,500,500,100,50,500,50,200,100,100,50,500,500,500,500,500,100,50,500,100,200,500,200,200,50,50,200,100,100,100,200,500,500,200,100,200,500,200,100,500,500,50,100,50,50,500,200,100,200,50,500,200,200,200,200,50,200,500,200,500,200,100,50,200,50,500,500,500,500,100,500,50,100,200,50,50,50,200,200,100,500,200,100,100,50,500,50,100,50,500,200,500,100,500,200,200"
        # Node 11 random traffic
dtnsim.node[11].app.enable = true
dtnsim.node[11].app.bundlesNumber = "1,1,1,1,1,1,1,1,1,1,1,1,1,1,1,1,1,1,1,1,1,1,1,1,1,1,1,1,1,1,1,1,1,1,1,1,1,1,1,1,1,1,1,1,1,1,1,1,1,1,1,1,1,1,1,1,1,1,1,1,1,1,1,1,1,1,1,1,1,1,1,1,1,1,1,1,1,1,1,1,1,1,1,1,1,1,1,1,1,1,1,1,1,1,1,1,1,1,1,1"
dtnsim.node[11].app.start = "9,1,20,4,1,9,3,13,2,14,14,15,9,6,5,5,9,8,4,9,19,10,8,16,4,4,19,13,15,3,8,17,3,1,9,10,19,3,1,18,11,4,15,16,17,3,6,3,20,18,3,19,15,16,7,14,14,2,14,13,3,9,3,8,4,10,5,7,13,1,3,3,7,12,4,6,1,17,1,4,6,20,4,11,9,16,18,11,18,17,15,8,11,2,19,18,19,9,18,4"
dtnsim.node[11].app.destinationEid = "116,174,131,98,33,70,51,114,117,94,33,71,17,121,132,56,42,22,145,88,37,94,94,163,106,131,149,46,75,12,51,40,75,49,149,158,102,128,77,149,130,32,156,20,167,103,156,8,86,98,120,48,75,130,19,14,165,103,164,158,91,9,147,147,177,58,6,82,100,53,67,107,167,32,83,117,83,163,107,90,160,58,91,50,125,30,150,160,51,131,66,114,82,47,6,25,111,155,9,114"
dtnsim.node[11].app.size = "50,50,500,200,100,500,500,200,50,50,50,50,100,500,200,200,500,50,50,50,200,50,50,100,50,500,500,100,500,200,500,50,50,500,200,500,100,500,50,100,200,500,50,500,100,50,100,200,50,200,200,500,200,500,200,200,500,100,50,500,100,200,200,100,50,200,500,50,100,200,500,100,200,200,500,200,200,500,50,200,200,50,500,50,100,200,50,100,500,50,50,50,50,50,200,100,500,500,200,200"
        # Node 12 random traffic
dtnsim.node[12].app.enable = true
dtnsim.node[12].app.bundlesNumber = "1,1,1,1,1,1,1,1,1,1,1,1,1,1,1,1,1,1,1,1,1,1,1,1,1,1,1,1,1,1,1,1,1,1,1,1,1,1,1,1,1,1,1,1,1,1,1,1,1,1,1,1,1,1,1,1,1,1,1,1,1,1,1,1,1,1,1,1,1,1,1,1,1,1,1,1,1,1,1,1,1,1,1,1,1,1,1,1,1,1,1,1,1,1,1,1,1,1,1,1"
dtnsim.node[12].app.start = "17,20,3,2,3,18,19,3,6,11,6,16,2,6,10,3,2,8,11,12,5,3,17,14,3,10,18,1,12,5,6,10,14,17,2,4,19,12,16,18,10,12,10,4,8,13,14,13,2,19,10,18,6,3,19,4,13,10,2,3,1,18,1,5,13,10,18,1,13,11,1,1,2,20,10,3,6,15,10,6,7,19,6,19,3,3,20,7,10,16,11,6,8,9,12,4,18,14,16,16"
dtnsim.node[12].app.destinationEid = "178,159,89,129,157,86,135,37,46,67,171,180,101,1,76,162,69,14,145,131,144,101,47,93,43,45,121,48,118,170,127,159,127,131,20,26,152,99,126,16,10,174,73,85,6,160,67,45,115,70,71,9,24,65,77,14,28,85,16,61,142,17,25,134,36,142,73,109,78,60,114,168,84,108,35,49,73,43,180,177,175,99,24,61,1,159,75,165,113,92,56,166,99,55,151,77,17,66,21,116"
dtnsim.node[12].app.size = "200,500,200,200,100,50,200,500,50,100,50,50,50,50,50,500,500,100,500,100,500,500,50,100,500,100,200,200,200,50,500,50,50,50,200,50,500,100,500,50,100,500,50,100,100,200,100,50,100,50,200,500,500,500,100,500,100,50,50,50,50,200,500,100,100,500,100,100,50,500,100,50,200,500,50,50,50,500,500,200,500,100,500,500,50,500,200,500,200,100,200,500,100,200,500,200,500,50,50,100"
        # Node 13 random traffic
dtnsim.node[13].app.enable = true
dtnsim.node[13].app.bundlesNumber = "1,1,1,1,1,1,1,1,1,1,1,1,1,1,1,1,1,1,1,1,1,1,1,1,1,1,1,1,1,1,1,1,1,1,1,1,1,1,1,1,1,1,1,1,1,1,1,1,1,1,1,1,1,1,1,1,1,1,1,1,1,1,1,1,1,1,1,1,1,1,1,1,1,1,1,1,1,1,1,1,1,1,1,1,1,1,1,1,1,1,1,1,1,1,1,1,1,1,1,1"
dtnsim.node[13].app.start = "19,4,12,16,5,6,15,4,6,17,4,12,11,18,18,9,4,16,2,13,15,13,12,1,1,13,6,6,7,15,2,14,4,6,16,4,6,9,5,12,20,9,14,2,16,13,4,13,2,7,20,13,17,20,12,18,10,8,17,3,5,5,2,11,8,5,14,13,1,2,14,19,12,7,13,2,9,7,11,2,11,12,14,4,14,15,2,15,12,7,20,9,7,2,18,1,1,12,17,18"
dtnsim.node[13].app.destinationEid = "65,12,163,142,83,146,100,49,133,142,63,171,38,29,139,37,23,177,64,162,26,140,63,35,36,8,119,136,40,39,65,41,41,3,103,177,100,178,106,119,179,1,99,133,85,107,96,121,147,100,87,19,8,95,1,103,80,12,170,8,14,90,32,80,2,66,62,118,71,96,65,170,68,110,161,39,70,134,32,2,107,22,155,136,131,143,129,16,140,113,108,59,36,3,120,132,44,39,153,101"
dtnsim.node[13].app.size = "500,50,50,100,500,200,500,500,50,200,50,200,100,50,50,50,200,500,500,200,100,100,50,500,500,100,50,200,500,100,100,500,200,200,200,100,500,50,500,50,500,200,50,200,500,50,500,500,500,500,100,100,50,500,50,200,100,100,50,500,100,50,50,100,500,50,500,500,100,100,500,100,50,200,200,100,50,500,100,50,200,50,200,50,50,100,100,200,200,50,200,200,100,50,100,500,200,500,100,500"
        # Node 14 random traffic
dtnsim.node[14].app.enable = true
dtnsim.node[14].app.bundlesNumber = "1,1,1,1,1,1,1,1,1,1,1,1,1,1,1,1,1,1,1,1,1,1,1,1,1,1,1,1,1,1,1,1,1,1,1,1,1,1,1,1,1,1,1,1,1,1,1,1,1,1,1,1,1,1,1,1,1,1,1,1,1,1,1,1,1,1,1,1,1,1,1,1,1,1,1,1,1,1,1,1,1,1,1,1,1,1,1,1,1,1,1,1,1,1,1,1,1,1,1,1"
dtnsim.node[14].app.start = "10,2,9,12,5,12,11,3,7,18,4,18,11,16,9,1,8,19,18,5,7,10,3,18,18,18,14,19,6,6,12,16,8,9,16,7,3,20,8,2,18,14,20,2,14,20,8,18,1,12,10,14,10,5,15,16,14,6,10,7,16,12,3,12,17,8,15,8,17,20,3,15,13,11,8,19,18,4,7,1,12,19,20,14,5,7,3,12,5,4,6,13,20,15,7,13,14,1,18,12"
dtnsim.node[14].app.destinationEid = "82,88,62,106,34,4,116,138,119,104,95,104,54,109,75,119,166,26,165,140,53,23,63,177,52,82,166,109,78,165,45,118,16,81,80,27,40,109,40,97,108,43,145,17,135,12,91,134,138,90,113,132,43,177,177,34,147,3,166,104,162,58,75,73,66,106,176,84,74,99,132,18,21,117,66,81,96,3,51,137,167,22,103,169,72,106,28,40,123,104,126,108,137,177,20,79,161,165,12,179"
dtnsim.node[14].app.size = "100,50,200,500,200,200,100,200,500,100,50,200,200,50,200,200,200,500,100,50,50,200,200,500,500,50,200,500,200,100,200,100,100,100,50,100,500,100,500,50,500,500,200,100,100,100,50,100,200,500,500,100,500,500,500,500,500,500,100,100,50,200,500,500,200,500,100,500,50,100,200,200,500,100,100,500,100,100,200,50,50,500,100,500,500,100,200,500,200,200,100,500,50,100,100,200,100,50,200,200"
        # Node 15 random traffic
dtnsim.node[15].app.enable = true
dtnsim.node[15].app.bundlesNumber = "1,1,1,1,1,1,1,1,1,1,1,1,1,1,1,1,1,1,1,1,1,1,1,1,1,1,1,1,1,1,1,1,1,1,1,1,1,1,1,1,1,1,1,1,1,1,1,1,1,1,1,1,1,1,1,1,1,1,1,1,1,1,1,1,1,1,1,1,1,1,1,1,1,1,1,1,1,1,1,1,1,1,1,1,1,1,1,1,1,1,1,1,1,1,1,1,1,1,1,1"
dtnsim.node[15].app.start = "16,14,4,20,19,4,15,6,6,10,9,17,9,10,9,16,6,20,7,8,13,15,5,5,5,19,16,3,17,1,13,6,6,18,16,9,11,5,1,20,13,10,20,13,8,2,18,3,5,11,11,7,9,9,3,10,11,5,20,7,9,15,9,20,4,1,11,8,19,5,20,9,1,12,4,18,10,6,1,17,5,15,17,12,19,7,6,6,2,5,11,11,2,10,18,3,3,18,17,18"
dtnsim.node[15].app.destinationEid = "115,37,13,9,179,124,172,116,117,97,37,118,130,7,42,157,53,85,79,5,55,171,14,106,122,3,109,170,104,100,163,150,143,92,116,16,66,20,52,14,137,39,27,114,9,128,20,64,149,129,136,167,9,11,78,90,147,147,176,36,82,142,39,41,77,166,129,44,17,107,30,134,137,98,170,128,124,55,90,83,163,89,126,113,53,42,151,43,45,63,159,25,77,150,99,90,160,33,39,97"
dtnsim.node[15].app.size = "200,200,100,500,200,50,500,200,100,50,50,200,200,200,50,50,500,200,200,500,100,500,500,200,50,100,50,200,50,100,500,100,500,500,500,200,50,50,500,500,200,50,100,100,500,50,500,500,100,100,100,50,200,500,500,200,100,100,500,100,100,500,50,50,100,500,50,200,50,500,500,200,500,100,50,100,100,500,50,500,200,500,100,200,50,100,100,50,200,200,500,100,500,50,100,200,100,500,200,100"
        # Node 16 random traffic
dtnsim.node[16].app.enable = true
dtnsim.node[16].app.bundlesNumber = "1,1,1,1,1,1,1,1,1,1,1,1,1,1,1,1,1,1,1,1,1,1,1,1,1,1,1,1,1,1,1,1,1,1,1,1,1,1,1,1,1,1,1,1,1,1,1,1,1,1,1,1,1,1,1,1,1,1,1,1,1,1,1,1,1,1,1,1,1,1,1,1,1,1,1,1,1,1,1,1,1,1,1,1,1,1,1,1,1,1,1,1,1,1,1,1,1,1,1,1"
dtnsim.node[16].app.start = "13,19,19,18,3,2,5,19,15,5,1,3,17,14,3,4,20,8,17,4,11,11,2,1,17,2,3,2,11,19,6,10,5,2,1,8,3,11,12,9,16,10,9,3,4,13,3,12,12,6,10,9,6,18,6,1,11,1,16,20,19,7,14,3,2,2,4,5,19,1,9,3,4,11,3,3,9,20,15,6,15,14,16,11,14,12,13,18,5,10,19,7,12,11,5,18,3,9,1,6"
dtnsim.node[16].app.destinationEid = "81,33,35,83,103,170,106,5,117,42,97,137,59,145,62,48,21,141,164,135,122,40,49,97,130,67,94,34,72,13,27,31,96,137,28,52,70,152,7,2,94,119,161,31,105,63,123,157,135,147,142,52,100,161,141,135,4,80,130,12,143,22,9,17,97,46,10,108,42,148,155,91,40,48,180,153,173,168,11,150,7,21,118,165,118,106,132,25,132,169,78,151,4,109,116,38,119,19,7,8"
dtnsim.node[16].app.size = "500,100,200,200,50,200,200,500,500,50,100,50,50,500,200,200,100,50,200,500,50,500,500,100,500,50,50,100,500,200,200,100,50,50,50,200,50,200,100,50,100,500,50,500,100,200,50,50,500,200,50,50,50,500,50,100,500,100,200,100,50,500,200,500,200,100,100,200,50,200,200,500,50,50,500,50,500,500,50,50,50,200,100,500,500,500,50,200,200,200,500,100,200,500,50,50,200,50,50,100"
        # Node 17 random traffic
dtnsim.node[17].app.enable = true
dtnsim.node[17].app.bundlesNumber = "1,1,1,1,1,1,1,1,1,1,1,1,1,1,1,1,1,1,1,1,1,1,1,1,1,1,1,1,1,1,1,1,1,1,1,1,1,1,1,1,1,1,1,1,1,1,1,1,1,1,1,1,1,1,1,1,1,1,1,1,1,1,1,1,1,1,1,1,1,1,1,1,1,1,1,1,1,1,1,1,1,1,1,1,1,1,1,1,1,1,1,1,1,1,1,1,1,1,1,1"
dtnsim.node[17].app.start = "7,18,20,1,6,16,8,18,6,4,14,12,10,6,7,13,19,6,14,15,9,6,4,3,1,7,13,7,17,18,17,13,9,14,20,1,18,16,7,19,16,7,16,17,7,1,16,3,4,13,11,10,18,4,2,16,13,2,1,14,15,9,7,14,20,16,5,14,4,8,3,20,12,5,5,18,14,18,6,16,11,7,5,4,16,3,11,8,11,8,7,17,16,9,16,14,4,2,20,5"
dtnsim.node[17].app.destinationEid = "68,24,117,37,84,42,179,131,180,69,106,64,28,171,121,50,20,11,152,128,120,89,2,96,128,150,167,49,169,25,47,128,86,35,14,73,72,179,75,79,12,116,108,102,74,82,50,26,122,41,159,116,136,90,104,132,36,135,146,178,15,114,38,134,39,170,5,61,64,1,68,8,58,6,43,106,165,113,75,65,153,118,106,79,41,112,95,26,72,48,127,40,110,25,115,45,129,68,127,120"
dtnsim.node[17].app.size = "100,100,500,50,50,500,100,500,100,200,500,50,50,500,50,50,200,500,100,500,50,200,100,100,500,50,200,100,100,50,500,50,500,100,500,500,500,500,200,500,50,500,200,200,50,100,200,100,50,500,200,50,100,500,500,500,500,100,100,50,50,100,500,500,500,50,200,500,200,50,200,200,100,100,200,100,200,100,100,200,100,100,500,100,500,100,200,100,50,50,500,100,50,200,200,500,500,200,500,50"
        # Node 18 random traffic
dtnsim.node[18].app.enable = true
dtnsim.node[18].app.bundlesNumber = "1,1,1,1,1,1,1,1,1,1,1,1,1,1,1,1,1,1,1,1,1,1,1,1,1,1,1,1,1,1,1,1,1,1,1,1,1,1,1,1,1,1,1,1,1,1,1,1,1,1,1,1,1,1,1,1,1,1,1,1,1,1,1,1,1,1,1,1,1,1,1,1,1,1,1,1,1,1,1,1,1,1,1,1,1,1,1,1,1,1,1,1,1,1,1,1,1,1,1,1"
dtnsim.node[18].app.start = "3,19,9,7,3,18,20,13,7,16,2,5,8,11,18,18,18,4,9,3,2,4,20,3,11,8,13,12,11,12,2,1,11,1,16,10,2,8,3,14,11,8,20,1,1,13,20,18,14,1,1,19,15,19,14,9,6,15,12,17,8,18,9,17,9,20,16,2,14,2,18,12,13,3,9,6,2,8,14,10,5,3,17,7,16,15,15,20,2,15,17,17,14,4,3,14,16,20,10,12"
dtnsim.node[18].app.destinationEid = "167,90,20,4,76,44,152,86,141,135,113,17,165,2,58,26,159,144,105,38,58,176,120,165,180,134,54,61,158,123,63,46,47,154,26,134,84,81,136,55,175,175,138,149,114,59,116,128,178,65,130,33,96,88,9,121,3,120,55,86,142,98,137,13,114,159,106,72,87,66,179,105,17,154,97,147,178,59,34,180,168,143,49,142,146,41,23,31,154,97,21,4,60,162,149,115,20,160,66,59"
dtnsim.node[18].app.size = "50,50,200,100,100,200,50,200,50,200,100,50,100,500,100,500,200,500,100,500,200,500,200,200,200,200,200,50,500,50,500,50,100,50,100,50,50,100,200,200,500,200,200,200,200,100,200,200,500,100,200,500,500,100,200,50,100,500,50,500,100,500,50,50,500,500,50,100,500,200,100,50,50,100,50,500,500,500,500,200,50,200,200,200,200,100,50,200,500,500,50,100,500,100,200,50,100,200,50,100"
        # Node 19 random traffic
dtnsim.node[19].app.enable = true
dtnsim.node[19].app.bundlesNumber = "1,1,1,1,1,1,1,1,1,1,1,1,1,1,1,1,1,1,1,1,1,1,1,1,1,1,1,1,1,1,1,1,1,1,1,1,1,1,1,1,1,1,1,1,1,1,1,1,1,1,1,1,1,1,1,1,1,1,1,1,1,1,1,1,1,1,1,1,1,1,1,1,1,1,1,1,1,1,1,1,1,1,1,1,1,1,1,1,1,1,1,1,1,1,1,1,1,1,1,1"
dtnsim.node[19].app.start = "11,11,6,5,8,20,11,7,2,7,7,6,18,14,17,7,12,20,5,8,7,7,16,6,1,15,14,15,11,9,15,11,19,8,17,14,8,2,18,19,13,10,18,1,13,16,1,10,2,4,19,6,20,17,7,2,3,11,20,9,2,6,1,6,14,19,11,16,5,20,20,4,4,7,17,20,1,11,18,1,3,14,1,13,20,11,10,20,7,7,8,19,18,12,14,12,6,14,6,5"
dtnsim.node[19].app.destinationEid = "49,62,153,163,66,133,166,4,139,56,75,145,10,82,26,115,33,39,167,99,12,157,136,159,136,87,158,117,109,15,54,177,146,22,89,124,5,76,42,85,56,170,175,126,115,146,59,15,41,77,49,90,34,166,25,173,178,35,161,39,171,63,53,64,51,41,176,91,44,49,133,3,156,34,162,175,106,149,9,138,131,53,144,47,153,40,58,68,115,67,100,165,112,165,97,4,140,155,118,2"
dtnsim.node[19].app.size = "200,50,50,50,50,200,100,500,500,500,50,100,50,100,500,200,50,200,100,100,100,50,200,200,100,200,500,500,100,100,50,500,200,50,50,50,100,100,100,50,100,100,200,100,500,500,50,100,100,500,500,50,50,100,500,200,100,50,100,200,50,100,50,100,200,100,50,50,100,50,100,500,500,50,200,100,500,200,50,100,200,100,500,100,200,500,500,500,200,500,200,500,200,50,100,50,200,500,50,50"
        # Node 20 random traffic
dtnsim.node[20].app.enable = true
dtnsim.node[20].app.bundlesNumber = "1,1,1,1,1,1,1,1,1,1,1,1,1,1,1,1,1,1,1,1,1,1,1,1,1,1,1,1,1,1,1,1,1,1,1,1,1,1,1,1,1,1,1,1,1,1,1,1,1,1,1,1,1,1,1,1,1,1,1,1,1,1,1,1,1,1,1,1,1,1,1,1,1,1,1,1,1,1,1,1,1,1,1,1,1,1,1,1,1,1,1,1,1,1,1,1,1,1,1,1"
dtnsim.node[20].app.start = "16,5,13,9,14,17,1,14,17,6,8,13,3,12,13,9,15,4,8,3,5,2,7,8,6,19,14,14,8,17,15,7,18,9,3,7,14,5,2,3,8,16,5,15,8,11,11,2,10,9,10,17,12,12,1,17,13,7,6,17,20,20,14,20,12,17,10,12,5,3,12,14,7,17,16,7,12,12,8,20,9,3,16,17,2,11,20,13,19,20,12,6,5,18,11,9,19,16,11,2"
dtnsim.node[20].app.destinationEid = "143,85,15,55,95,65,160,133,110,150,1,93,73,63,153,146,75,179,177,78,4,21,115,128,157,171,97,132,148,35,33,118,40,172,46,40,141,11,156,52,100,77,178,171,3,166,99,76,35,164,3,176,121,9,86,85,17,130,169,144,174,136,95,118,14,31,53,130,105,163,161,62,74,100,113,22,65,43,58,144,151,21,89,97,76,97,84,29,35,135,62,100,97,141,56,168,110,179,98,89"
dtnsim.node[20].app.size = "500,200,100,100,200,200,50,500,100,50,100,200,200,100,50,100,500,200,50,100,500,500,100,200,200,500,500,50,100,500,50,100,50,200,500,100,200,50,50,100,500,200,50,500,100,500,50,100,100,200,100,200,50,100,200,50,50,200,50,500,50,100,200,500,100,200,100,50,200,100,200,50,500,500,100,200,100,100,50,50,100,200,200,50,500,100,500,100,100,100,200,100,50,100,50,200,500,200,200,200"
        # Node 21 random traffic
dtnsim.node[21].app.enable = true
dtnsim.node[21].app.bundlesNumber = "1,1,1,1,1,1,1,1,1,1,1,1,1,1,1,1,1,1,1,1,1,1,1,1,1,1,1,1,1,1,1,1,1,1,1,1,1,1,1,1,1,1,1,1,1,1,1,1,1,1,1,1,1,1,1,1,1,1,1,1,1,1,1,1,1,1,1,1,1,1,1,1,1,1,1,1,1,1,1,1,1,1,1,1,1,1,1,1,1,1,1,1,1,1,1,1,1,1,1,1"
dtnsim.node[21].app.start = "14,20,20,16,6,18,18,6,13,19,5,1,7,15,8,17,1,13,13,3,18,1,14,4,13,20,9,5,10,5,2,1,2,14,1,12,9,17,14,7,1,3,5,11,9,16,14,12,15,17,8,12,9,1,15,11,20,15,15,19,19,13,4,15,1,4,6,14,19,8,13,1,9,6,9,1,17,3,20,14,12,1,17,1,16,1,11,20,7,2,20,8,19,11,5,8,15,18,20,9"
dtnsim.node[21].app.destinationEid = "37,135,116,141,128,104,86,163,136,88,79,7,156,171,112,19,116,1,4,84,100,59,108,27,177,78,111,17,141,170,12,180,131,8,135,115,24,38,100,180,178,126,111,62,64,128,141,3,43,179,152,3,126,98,116,48,5,98,77,168,97,100,34,136,6,96,54,96,77,6,71,16,176,171,2,82,103,16,125,42,173,174,84,72,7,90,154,57,175,99,14,145,62,82,14,138,38,111,52,34"
dtnsim.node[21].app.size = "200,50,100,50,500,50,500,500,50,100,500,100,100,500,500,500,50,100,100,200,500,100,100,200,200,100,200,50,50,100,500,200,500,200,100,500,200,50,500,500,200,100,50,100,50,100,100,500,100,100,200,200,100,50,100,50,50,100,200,500,100,50,500,500,100,500,200,500,200,100,200,50,200,500,100,500,100,100,50,200,500,100,500,500,200,100,100,100,500,100,100,100,200,200,50,100,50,50,100,200"
        # Node 22 random traffic
dtnsim.node[22].app.enable = true
dtnsim.node[22].app.bundlesNumber = "1,1,1,1,1,1,1,1,1,1,1,1,1,1,1,1,1,1,1,1,1,1,1,1,1,1,1,1,1,1,1,1,1,1,1,1,1,1,1,1,1,1,1,1,1,1,1,1,1,1,1,1,1,1,1,1,1,1,1,1,1,1,1,1,1,1,1,1,1,1,1,1,1,1,1,1,1,1,1,1,1,1,1,1,1,1,1,1,1,1,1,1,1,1,1,1,1,1,1,1"