[General]
network = src.dtnsim										
repeat = 1
allow-object-stealing-on-deletion = true

# Simulation end time
sim-time-limit = 84600s

# Nodes quantity (identifiers (EiDs) matches their index, EiD=0 is ignored)			
dtnsim.nodesNumber = 120
dtnsim.node[*].icon = "satellite"

# Nodes's failure rates
dtnsim.node[*].fault.enable = true
dtnsim.node[*].fault.meanTTF = 90s
dtnsim.node[*].fault.meanTTR = 10s

# Mobility
dtnsim.node[*].hasMobility = true
dtnsim.node[*].noradModule.satIndex = parentIndex()
dtnsim.node[*].noradModule.satName = "sat"
**.updateInterval = 20s
**.numOfSats = 120
**.satPerPlane = 10
**.altitude = 540
**.planes = 12
**.phaseOffset = 7

dtnsim.node[*].dtn.routing = "antop"
dtnsim.node[*].dtn.printRoutingDebug = true

# --- Random Traffic Configuration ---
# Node 1 random traffic
dtnsim.node[1].app.enable = true
dtnsim.node[1].app.bundlesNumber = "1,1,1,1,1,1,1,1,1,1,1,1,1,1,1,1,1,1,1,1,1,1,1,1,1,1,1,1,1,1,1,1,1,1,1,1,1,1,1,1,1,1,1,1,1,1,1,1,1,1,1,1,1,1,1,1,1,1,1,1,1,1,1,1,1,1,1,1,1,1,1,1,1,1,1,1,1,1,1,1,1,1,1,1,1,1,1,1,1,1,1,1,1,1,1,1,1,1,1,1"
dtnsim.node[1].app.start = "1,2,14,17,9,3,16,10,1,5,9,6,17,12,4,16,9,2,1,7,15,14,8,19,8,19,10,18,20,13,17,20,2,17,8,2,12,5,18,12,1,2,12,7,12,17,19,12,14,9,12,5,6,10,8,14,18,11,14,6,6,8,11,7,4,6,1,2,5,10,3,4,3,5,15,4,17,15,3,18,10,3,12,8,13,4,3,9,14,1,12,14,2,10,3,3,16,17,4,17"
dtnsim.node[1].app.destinationEid = "98,113,61,28,49,116,19,54,83,85,66,96,89,70,89,41,106,82,16,24,53,30,35,96,7,79,92,60,113,90,19,71,9,39,28,105,41,60,11,61,36,11,64,49,108,35,92,81,28,34,45,8,100,7,71,28,79,51,45,88,46,5,14,104,53,49,79,82,48,38,83,16,28,19,40,42,104,83,5,58,40,101,88,21,16,111,52,7,88,112,14,86,83,37,58,32,114,74,75,33"
dtnsim.node[1].app.size = "500,100,50,500,200,500,50,200,50,200,50,100,200,100,500,50,100,200,50,50,500,100,50,50,100,200,200,100,50,200,200,500,100,100,500,200,100,500,500,500,500,500,100,200,50,100,50,500,100,50,100,200,500,50,500,200,500,500,50,500,50,200,500,500,500,100,100,100,50,500,50,50,200,200,200,50,500,100,100,500,100,500,100,50,500,500,50,50,100,50,200,500,500,500,200,500,200,200,200,200"
        # Node 2 random traffic
dtnsim.node[2].app.enable = true
dtnsim.node[2].app.bundlesNumber = "1,1,1,1,1,1,1,1,1,1,1,1,1,1,1,1,1,1,1,1,1,1,1,1,1,1,1,1,1,1,1,1,1,1,1,1,1,1,1,1,1,1,1,1,1,1,1,1,1,1,1,1,1,1,1,1,1,1,1,1,1,1,1,1,1,1,1,1,1,1,1,1,1,1,1,1,1,1,1,1,1,1,1,1,1,1,1,1,1,1,1,1,1,1,1,1,1,1,1,1"
dtnsim.node[2].app.start = "19,11,17,8,9,20,13,10,20,11,7,14,1,20,15,3,17,11,8,16,4,12,15,6,3,11,12,17,6,8,11,3,5,14,10,16,10,9,17,20,20,6,1,9,2,7,12,1,15,3,17,6,7,7,19,5,6,8,7,10,7,12,3,8,4,17,12,10,16,12,14,13,8,18,4,12,5,18,14,14,9,1,8,6,14,5,7,2,2,3,2,1,18,20,10,16,6,7,17,3"
dtnsim.node[2].app.destinationEid = "117,42,104,55,15,111,25,62,35,94,24,46,70,43,76,69,7,120,40,53,17,30,42,51,12,78,57,104,9,112,96,59,67,89,31,53,36,83,115,45,67,22,81,20,64,11,91,42,22,74,13,25,3,97,51,119,4,1,106,104,60,39,58,24,109,6,39,86,119,90,114,99,42,105,88,107,66,94,49,14,98,41,33,93,85,111,53,119,49,81,8,55,1,6,81,13,15,26,77,1"
dtnsim.node[2].app.size = "500,50,200,500,50,50,500,100,200,500,50,200,50,100,100,100,100,500,50,100,200,200,100,500,100,500,50,200,200,100,500,50,200,50,50,50,500,200,50,500,50,50,200,200,50,200,50,50,500,500,200,500,200,100,50,200,50,100,500,50,50,50,100,500,200,50,500,50,500,500,100,500,200,50,200,100,100,500,500,50,500,500,500,200,100,100,100,200,500,50,500,50,50,100,50,500,100,100,50,200"
        # Node 3 random traffic
dtnsim.node[3].app.enable = true
dtnsim.node[3].app.bundlesNumber = "1,1,1,1,1,1,1,1,1,1,1,1,1,1,1,1,1,1,1,1,1,1,1,1,1,1,1,1,1,1,1,1,1,1,1,1,1,1,1,1,1,1,1,1,1,1,1,1,1,1,1,1,1,1,1,1,1,1,1,1,1,1,1,1,1,1,1,1,1,1,1,1,1,1,1,1,1,1,1,1,1,1,1,1,1,1,1,1,1,1,1,1,1,1,1,1,1,1,1,1"
dtnsim.node[3].app.start = "13,9,17,20,14,13,12,7,12,4,2,7,19,9,13,13,17,12,14,8,19,7,13,18,9,15,19,6,17,9,11,20,6,9,7,10,11,4,11,1,5,4,15,17,1,11,10,14,8,14,16,1,15,3,18,18,8,12,6,20,11,18,1,13,9,11,8,13,18,13,17,10,19,9,11,13,1,8,19,2,19,11,16,10,13,17,19,8,19,1,17,11,16,11,11,2,19,6,7,20"
dtnsim.node[3].app.destinationEid = "80,116,95,39,13,17,5,11,54,29,13,72,76,44,98,73,36,113,41,37,97,89,83,106,108,53,72,111,106,56,22,35,112,69,48,72,69,84,116,70,113,34,8,34,49,97,28,9,25,71,36,11,61,104,17,6,89,37,77,17,51,47,113,107,14,116,11,108,112,48,12,7,111,67,117,35,86,31,55,2,4,108,29,34,104,101,7,60,41,105,23,101,54,103,44,39,76,86,54,34"
dtnsim.node[3].app.size = "100,200,100,50,200,200,100,50,500,50,200,100,100,500,200,50,50,500,100,50,500,100,50,50,50,100,50,100,200,100,50,200,200,500,500,100,50,500,50,50,500,200,200,500,100,500,100,100,200,500,50,500,50,100,500,500,200,500,50,100,50,50,500,50,500,500,50,500,50,50,500,500,200,100,500,500,50,50,50,500,50,500,200,100,200,500,500,50,50,100,50,200,500,100,100,50,200,200,200,500"
        # Node 4 random traffic
dtnsim.node[4].app.enable = true
dtnsim.node[4].app.bundlesNumber = "1,1,1,1,1,1,1,1,1,1,1,1,1,1,1,1,1,1,1,1,1,1,1,1,1,1,1,1,1,1,1,1,1,1,1,1,1,1,1,1,1,1,1,1,1,1,1,1,1,1,1,1,1,1,1,1,1,1,1,1,1,1,1,1,1,1,1,1,1,1,1,1,1,1,1,1,1,1,1,1,1,1,1,1,1,1,1,1,1,1,1,1,1,1,1,1,1,1,1,1"
dtnsim.node[4].app.start = "5,12,19,7,18,6,19,7,13,10,17,9,17,9,20,15,6,11,12,2,18,3,2,3,6,6,9,9,14,15,10,18,15,18,1,4,15,12,8,17,4,20,4,12,13,18,11,7,9,7,17,15,1,20,8,9,2,20,16,10,16,17,13,16,14,14,9,7,4,17,2,8,18,16,7,18,19,12,9,2,6,5,1,4,12,1,3,5,6,20,18,10,11,1,16,20,5,14,11,15"
dtnsim.node[4].app.destinationEid = "59,38,81,83,84,57,75,29,113,101,8,51,31,115,16,37,76,36,110,71,83,76,102,52,105,8,57,20,107,29,36,91,37,23,118,88,113,78,15,27,92,48,2,35,92,89,3,96,62,84,49,39,88,28,75,113,117,113,96,99,25,119,29,107,12,90,81,10,73,69,22,66,108,28,96,107,45,83,70,99,102,69,96,18,10,89,52,36,34,54,21,83,119,102,78,20,101,101,47,79"
dtnsim.node[4].app.size = "200,50,100,200,200,50,500,500,50,100,100,100,50,500,200,50,200,50,500,100,100,500,500,500,500,200,500,50,50,50,500,200,200,100,100,100,500,500,100,200,500,200,500,500,200,50,100,200,500,100,200,500,100,500,50,100,200,50,50,500,50,200,50,100,50,100,100,500,100,500,500,50,50,50,50,100,50,200,500,200,100,100,50,50,500,500,100,500,50,500,100,200,500,50,100,50,100,50,100,50"
        # Node 5 random traffic
dtnsim.node[5].app.enable = true
dtnsim.node[5].app.bundlesNumber = "1,1,1,1,1,1,1,1,1,1,1,1,1,1,1,1,1,1,1,1,1,1,1,1,1,1,1,1,1,1,1,1,1,1,1,1,1,1,1,1,1,1,1,1,1,1,1,1,1,1,1,1,1,1,1,1,1,1,1,1,1,1,1,1,1,1,1,1,1,1,1,1,1,1,1,1,1,1,1,1,1,1,1,1,1,1,1,1,1,1,1,1,1,1,1,1,1,1,1,1"
dtnsim.node[5].app.start = "15,5,16,9,17,14,18,10,3,7,3,18,4,10,1,19,6,2,3,12,16,1,12,1,6,8,5,17,8,13,9,2,18,17,9,20,16,6,10,16,2,14,13,9,7,16,17,13,7,16,20,13,15,20,14,20,15,8,6,13,3,5,19,9,7,8,6,11,12,15,17,19,1,15,5,3,13,17,7,2,9,8,19,1,7,10,1,15,4,2,19,3,8,9,17,9,7,11,20,14"
dtnsim.node[5].app.destinationEid = "116,108,108,57,67,35,51,52,54,94,19,112,48,94,23,115,23,2,41,100,17,96,32,56,78,110,35,93,113,38,112,74,86,7,78,119,114,106,120,10,55,73,65,98,66,24,114,52,56,69,16,98,34,100,43,89,75,10,31,47,8,118,96,49,30,59,102,4,58,111,76,73,82,21,92,106,10,119,86,116,22,38,28,35,64,50,68,108,47,37,21,46,83,93,2,101,101,73,113,4"
dtnsim.node[5].app.size = "200,200,500,500,500,100,200,100,200,100,200,500,200,50,100,500,500,50,50,500,50,100,50,200,200,50,50,500,100,100,500,500,100,200,500,200,500,100,100,500,200,200,50,50,100,50,50,200,200,500,200,500,50,200,200,100,500,200,50,100,500,500,100,200,500,50,100,50,50,500,500,200,100,500,100,100,200,500,100,100,50,50,500,50,200,500,50,100,50,500,200,500,200,200,500,500,200,500,200,500"
        # Node 6 random traffic
dtnsim.node[6].app.enable = true
dtnsim.node[6].app.bundlesNumber = "1,1,1,1,1,1,1,1,1,1,1,1,1,1,1,1,1,1,1,1,1,1,1,1,1,1,1,1,1,1,1,1,1,1,1,1,1,1,1,1,1,1,1,1,1,1,1,1,1,1,1,1,1,1,1,1,1,1,1,1,1,1,1,1,1,1,1,1,1,1,1,1,1,1,1,1,1,1,1,1,1,1,1,1,1,1,1,1,1,1,1,1,1,1,1,1,1,1,1,1"
dtnsim.node[6].app.start = "7,16,20,19,17,6,15,18,9,11,8,17,10,4,15,11,13,11,11,19,1,19,14,4,18,8,9,1,12,7,8,2,10,6,19,10,17,1,4,18,7,17,20,5,3,19,6,1,6,8,8,5,19,10,8,2,3,15,18,9,20,7,10,4,13,10,3,20,18,4,4,4,11,6,5,15,18,18,18,3,12,13,10,18,4,1,12,12,12,19,13,19,14,2,13,10,5,1,20,10"
dtnsim.node[6].app.destinationEid = "83,13,62,96,105,68,118,68,17,70,88,100,46,117,92,80,112,81,36,25,44,93,12,42,23,19,101,58,91,88,26,26,68,101,58,16,87,92,52,75,15,29,77,71,50,115,69,64,105,39,8,41,63,56,42,1,70,84,90,51,40,12,81,112,26,91,78,91,97,60,41,112,10,62,10,108,19,54,21,34,108,49,81,98,36,114,15,112,73,42,32,11,61,44,108,11,106,33,88,33"
dtnsim.node[6].app.size = "100,100,100,100,500,100,50,100,500,50,200,100,50,100,50,500,50,100,500,500,200,100,100,500,100,100,200,200,50,200,50,50,500,500,500,100,100,50,500,200,200,200,50,100,500,50,100,500,200,200,500,500,500,200,100,200,200,100,500,50,500,500,200,500,50,100,100,100,50,50,100,50,200,500,50,500,50,50,500,500,100,200,500,500,200,50,200,100,200,200,200,200,200,500,500,50,100,100,200,100"
        # Node 7 random traffic
dtnsim.node[7].app.enable = true
dtnsim.node[7].app.bundlesNumber = "1,1,1,1,1,1,1,1,1,1,1,1,1,1,1,1,1,1,1,1,1,1,1,1,1,1,1,1,1,1,1,1,1,1,1,1,1,1,1,1,1,1,1,1,1,1,1,1,1,1,1,1,1,1,1,1,1,1,1,1,1,1,1,1,1,1,1,1,1,1,1,1,1,1,1,1,1,1,1,1,1,1,1,1,1,1,1,1,1,1,1,1,1,1,1,1,1,1,1,1"
dtnsim.node[7].app.start = "16,3,11,20,15,19,20,16,3,11,3,7,7,7,2,6,3,13,16,19,17,13,19,1,3,11,17,19,11,13,9,13,16,12,17,8,17,12,9,8,8,10,4,9,12,9,4,4,20,9,13,15,18,3,17,9,11,19,9,15,5,7,4,8,12,8,20,11,13,17,16,7,1,18,18,16,4,15,16,4,11,20,15,8,6,19,17,13,2,7,18,9,8,3,20,10,19,10,12,5"
dtnsim.node[7].app.destinationEid = "15,21,31,88,47,54,79,86,12,14,32,38,63,118,68,8,30,57,97,21,48,21,43,61,20,59,102,8,68,90,37,101,21,33,103,68,29,117,55,17,103,101,61,117,103,36,41,61,73,4,21,89,39,99,43,108,36,99,82,19,48,108,79,101,33,95,65,98,85,118,33,62,6,24,10,46,120,45,96,11,42,23,37,31,38,66,63,84,79,30,62,48,25,71,79,8,26,95,52,28"
dtnsim.node[7].app.size = "50,100,50,50,500,100,100,200,200,200,500,500,50,50,50,50,100,200,50,100,500,50,100,50,500,200,50,50,200,50,200,100,100,100,200,500,50,100,200,200,200,500,100,100,200,50,50,200,100,50,200,200,50,200,50,100,50,200,100,50,200,500,500,500,100,200,500,50,100,500,100,50,500,100,100,500,50,100,200,100,200,500,100,500,200,500,100,50,100,50,500,50,50,500,50,100,500,200,50,100"
        # Node 8 random traffic
dtnsim.node[8].app.enable = true
dtnsim.node[8].app.bundlesNumber = "1,1,1,1,1,1,1,1,1,1,1,1,1,1,1,1,1,1,1,1,1,1,1,1,1,1,1,1,1,1,1,1,1,1,1,1,1,1,1,1,1,1,1,1,1,1,1,1,1,1,1,1,1,1,1,1,1,1,1,1,1,1,1,1,1,1,1,1,1,1,1,1,1,1,1,1,1,1,1,1,1,1,1,1,1,1,1,1,1,1,1,1,1,1,1,1,1,1,1,1"
dtnsim.node[8].app.start = "10,12,11,12,9,9,4,3,6,17,14,3,2,1,20,19,14,16,19,3,19,2,19,9,2,5,15,10,17,19,20,1,9,16,16,7,12,6,6,13,17,5,16,18,15,5,6,14,5,4,16,2,13,1,7,17,15,3,12,5,3,16,18,8,3,1,6,18,12,8,5,5,9,4,19,15,1,1,18,10,2,1,3,13,4,20,17,15,3,2,20,7,4,11,4,5,5,11,9,4"
dtnsim.node[8].app.destinationEid = "109,45,53,40,77,47,60,111,71,109,7,118,116,83,69,61,3,60,107,114,57,43,82,3,39,49,55,113,99,33,25,12,58,53,103,47,99,52,60,35,64,2,10,40,48,27,2,68,54,107,108,110,55,22,83,7,44,65,4,89,66,83,80,119,23,117,108,17,37,58,83,81,82,11,49,91,104,102,33,11,114,76,40,67,79,22,72,114,26,103,5,118,63,54,27,43,23,39,32,52"
dtnsim.node[8].app.size = "500,100,500,100,100,50,200,50,50,500,200,50,50,50,500,50,200,50,200,500,50,500,100,50,100,100,500,500,200,200,50,500,500,500,200,200,50,200,50,500,200,200,200,500,500,50,500,200,100,100,500,200,200,100,100,100,50,100,500,100,200,500,100,500,50,50,100,500,100,100,500,50,500,200,50,500,200,200,100,500,200,200,500,200,50,100,50,50,500,500,500,500,500,50,100,500,50,50,100,200"
        # Node 9 random traffic
dtnsim.node[9].app.enable = true
dtnsim.node[9].app.bundlesNumber = "1,1,1,1,1,1,1,1,1,1,1,1,1,1,1,1,1,1,1,1,1,1,1,1,1,1,1,1,1,1,1,1,1,1,1,1,1,1,1,1,1,1,1,1,1,1,1,1,1,1,1,1,1,1,1,1,1,1,1,1,1,1,1,1,1,1,1,1,1,1,1,1,1,1,1,1,1,1,1,1,1,1,1,1,1,1,1,1,1,1,1,1,1,1,1,1,1,1,1,1"
dtnsim.node[9].app.start = "4,15,6,3,10,5,7,19,20,15,16,15,18,11,18,9,12,10,20,10,1,14,12,2,9,4,20,7,5,12,13,1,20,17,16,15,20,14,19,2,20,3,3,17,2,1,10,2,14,19,9,17,3,5,6,16,19,8,11,4,18,13,10,16,18,16,3,14,2,17,11,19,6,9,12,6,19,15,15,10,2,15,3,9,8,9,12,16,15,7,7,8,14,1,18,14,12,17,16,12"
dtnsim.node[9].app.destinationEid = "65,47,45,4,37,26,1,28,18,6,120,119,31,65,6,31,53,65,89,81,103,32,56,26,75,44,98,4,100,105,64,3,96,16,44,114,38,26,11,83,105,35,92,21,52,53,116,43,49,50,56,91,96,84,36,7,68,78,110,42,84,110,112,98,48,47,91,90,3,111,118,52,102,28,75,103,18,90,119,12,59,28,34,75,117,34,71,10,117,116,118,85,80,20,90,37,113,49,59,31"
dtnsim.node[9].app.size = "500,200,50,500,500,100,200,50,500,50,500,500,100,100,50,200,50,100,200,200,500,500,500,500,500,500,200,50,500,50,100,100,500,100,50,50,200,100,500,200,100,500,50,500,200,100,500,200,100,200,500,500,200,50,200,100,50,100,100,500,500,50,200,100,500,500,100,100,50,500,200,500,100,200,100,200,50,500,500,50,200,500,100,500,500,50,50,500,50,500,100,200,200,500,200,500,200,100,100,50"
        # Node 10 random traffic
dtnsim.node[10].app.enable = true
dtnsim.node[10].app.bundlesNumber = "1,1,1,1,1,1,1,1,1,1,1,1,1,1,1,1,1,1,1,1,1,1,1,1,1,1,1,1,1,1,1,1,1,1,1,1,1,1,1,1,1,1,1,1,1,1,1,1,1,1,1,1,1,1,1,1,1,1,1,1,1,1,1,1,1,1,1,1,1,1,1,1,1,1,1,1,1,1,1,1,1,1,1,1,1,1,1,1,1,1,1,1,1,1,1,1,1,1,1,1"
dtnsim.node[10].app.start = "1,8,18,12,19,1,9,1,5,20,15,1,13,10,2,3,5,6,7,8,4,7,6,7,10,11,10,11,4,10,1,18,3,17,9,2,6,5,5,19,8,11,4,11,12,9,18,14,9,14,12,4,2,3,3,11,12,15,20,17,9,9,7,16,9,1,16,12,9,3,20,9,20,6,6,9,18,18,12,4,8,4,18,14,9,20,17,7,19,8,17,18,11,2,14,20,2,8,14,2"
dtnsim.node[10].app.destinationEid = "45,14,28,52,13,43,50,42,54,83,3,73,74,112,100,108,104,92,70,33,93,11,1,93,19,100,87,35,25,8,17,75,27,19,50,33,41,22,105,69,97,120,110,43,85,31,67,43,70,13,104,107,47,30,61,61,55,78,47,112,75,65,38,86,81,74,120,45,24,21,77,25,114,116,13,58,57,79,46,92,71,116,85,16,99,110,88,72,59,25,69,118,51,119,68,119,20,72,86,85"
dtnsim.node[10].app.size = "100,50,100,200,500,200,200,500,50,500,100,100,50,500,500,500,100,500,500,500,100,500,100,500,500,50,200,100,100,50,50,50,50,100,100,100,500,200,100,50,500,50,100,100,500,500,100,50,100,50,200,200,100,100,50,100,100,200,50,200,50,200,100,100,200,500,50,50,50,200,100,200,50,100,500,500,500,50,200,500,200,200,50,100,100,100,500,50,50,100,50,500,100,100,50,100,50,50,500,200"
        # Node 11 random traffic
dtnsim.node[11].app.enable = true
dtnsim.node[11].app.bundlesNumber = "1,1,1,1,1,1,1,1,1,1,1,1,1,1,1,1,1,1,1,1,1,1,1,1,1,1,1,1,1,1,1,1,1,1,1,1,1,1,1,1,1,1,1,1,1,1,1,1,1,1,1,1,1,1,1,1,1,1,1,1,1,1,1,1,1,1,1,1,1,1,1,1,1,1,1,1,1,1,1,1,1,1,1,1,1,1,1,1,1,1,1,1,1,1,1,1,1,1,1,1"
dtnsim.node[11].app.start = "12,5,7,1,1,14,14,16,6,15,17,3,17,16,18,18,3,7,2,1,12,15,12,9,18,7,8,10,18,1,20,7,2,1,20,17,20,16,6,9,9,12,4,4,12,8,2,6,1,14,5,7,14,2,15,3,7,15,5,19,4,8,11,15,13,19,6,13,17,9,10,18,8,4,17,17,3,15,17,17,9,8,11,3,11,11,3,14,4,4,8,5,18,8,3,5,11,6,17,7"
dtnsim.node[11].app.destinationEid = "26,73,38,82,54,93,104,113,2,30,26,44,98,38,100,57,60,40,111,5,68,65,102,118,86,87,72,41,42,67,9,17,112,10,43,9,3,49,12,41,116,14,117,36,67,72,37,66,3,61,101,98,30,76,119,4,69,89,113,51,96,55,112,26,98,62,51,76,12,84,68,44,42,77,120,33,106,88,61,120,77,112,30,60,73,19,105,100,51,79,20,76,30,35,16,98,49,45,81,93"
dtnsim.node[11].app.size = "50,500,500,100,500,50,100,50,50,50,100,50,500,100,50,50,100,200,500,500,500,200,100,500,500,100,100,500,200,200,200,500,100,100,100,50,200,200,500,100,500,200,50,200,100,200,100,100,50,200,500,200,50,500,50,50,500,500,100,500,50,500,100,200,50,100,500,200,100,100,100,100,50,200,100,200,500,50,100,100,100,200,500,50,200,200,200,200,100,200,100,500,50,50,200,100,100,200,200,200"
        # Node 12 random traffic
dtnsim.node[12].app.enable = true
dtnsim.node[12].app.bundlesNumber = "1,1,1,1,1,1,1,1,1,1,1,1,1,1,1,1,1,1,1,1,1,1,1,1,1,1,1,1,1,1,1,1,1,1,1,1,1,1,1,1,1,1,1,1,1,1,1,1,1,1,1,1,1,1,1,1,1,1,1,1,1,1,1,1,1,1,1,1,1,1,1,1,1,1,1,1,1,1,1,1,1,1,1,1,1,1,1,1,1,1,1,1,1,1,1,1,1,1,1,1"
dtnsim.node[12].app.start = "3,11,15,2,14,13,19,6,2,19,11,8,3,14,20,20,16,15,18,17,19,20,8,18,13,3,10,19,11,5,20,10,17,11,18,1,19,19,5,3,17,18,9,9,20,7,5,18,14,2,14,17,9,11,1,17,9,19,6,6,3,2,7,11,6,5,5,16,10,5,19,16,11,14,9,13,13,7,7,20,10,13,3,12,3,1,13,17,6,1,16,10,15,18,9,5,20,8,6,19"
dtnsim.node[12].app.destinationEid = "108,17,96,80,102,7,27,87,7,88,45,32,51,112,106,61,117,105,42,31,31,107,67,63,91,74,70,77,44,16,78,6,100,61,17,103,115,48,31,58,109,50,120,113,60,10,38,119,42,71,16,3,14,99,97,18,105,118,32,117,15,13,112,31,67,32,67,79,7,85,29,60,115,109,54,40,45,112,115,61,102,45,47,42,14,119,10,68,74,7,34,114,11,22,62,1,32,43,105,63"
dtnsim.node[12].app.size = "200,100,200,100,500,100,200,50,200,200,200,50,200,500,200,100,50,200,100,50,100,200,100,100,200,500,200,200,500,500,100,200,500,500,50,100,100,50,50,100,50,100,200,100,200,200,500,50,500,100,200,100,100,50,50,100,500,50,100,500,500,50,50,100,100,100,50,50,500,200,100,50,200,100,200,500,500,100,500,500,500,200,200,100,200,200,100,500,50,100,100,200,500,200,50,100,50,500,100,100"
        # Node 13 random traffic
dtnsim.node[13].app.enable = true
dtnsim.node[13].app.bundlesNumber = "1,1,1,1,1,1,1,1,1,1,1,1,1,1,1,1,1,1,1,1,1,1,1,1,1,1,1,1,1,1,1,1,1,1,1,1,1,1,1,1,1,1,1,1,1,1,1,1,1,1,1,1,1,1,1,1,1,1,1,1,1,1,1,1,1,1,1,1,1,1,1,1,1,1,1,1,1,1,1,1,1,1,1,1,1,1,1,1,1,1,1,1,1,1,1,1,1,1,1,1"
dtnsim.node[13].app.start = "16,17,15,11,9,10,15,7,5,16,7,14,1,13,19,11,20,7,16,8,9,18,7,8,17,19,20,18,13,13,18,8,19,14,2,8,12,17,2,7,5,13,12,9,17,10,10,4,8,20,4,9,7,5,9,9,4,18,18,15,13,9,4,8,4,18,17,19,15,1,10,7,13,18,20,9,19,18,10,6,17,2,18,16,9,19,4,8,15,11,19,2,19,13,10,4,6,9,12,15"
dtnsim.node[13].app.destinationEid = "63,105,79,27,34,42,99,98,9,77,18,63,41,77,77,112,85,82,45,50,93,92,86,70,112,88,90,90,53,67,51,43,12,118,40,31,7,28,105,57,26,89,95,24,22,45,25,113,1,26,41,62,2,43,94,67,106,81,60,73,66,42,3,28,26,24,105,35,91,30,89,77,98,60,105,32,120,55,71,3,18,15,65,97,80,19,50,66,26,27,35,25,51,19,54,67,102,69,47,48"
dtnsim.node[13].app.size = "500,100,500,200,50,100,100,50,200,50,50,100,200,200,200,100,50,500,50,50,50,200,50,50,500,50,500,500,200,500,50,500,50,50,50,200,50,50,100,50,200,100,500,500,500,100,500,100,100,50,50,100,100,50,50,50,200,500,200,500,100,50,50,200,500,100,500,100,50,100,200,50,50,200,100,100,50,500,200,500,200,100,100,500,500,50,500,100,50,500,200,50,50,500,500,100,100,500,500,500"
        # Node 14 random traffic
dtnsim.node[14].app.enable = true
dtnsim.node[14].app.bundlesNumber = "1,1,1,1,1,1,1,1,1,1,1,1,1,1,1,1,1,1,1,1,1,1,1,1,1,1,1,1,1,1,1,1,1,1,1,1,1,1,1,1,1,1,1,1,1,1,1,1,1,1,1,1,1,1,1,1,1,1,1,1,1,1,1,1,1,1,1,1,1,1,1,1,1,1,1,1,1,1,1,1,1,1,1,1,1,1,1,1,1,1,1,1,1,1,1,1,1,1,1,1"
dtnsim.node[14].app.start = "16,11,1,7,12,19,14,2,6,2,17,3,1,20,17,11,9,3,4,3,14,8,4,15,17,7,12,9,6,17,10,14,20,5,19,12,12,19,9,6,4,15,15,11,20,16,17,2,8,14,19,5,6,15,9,3,16,10,8,14,5,1,1,16,2,14,6,14,19,3,19,11,5,6,15,2,12,13,18,8,1,1,5,17,19,6,18,9,15,16,3,15,4,9,19,7,4,14,9,18"
dtnsim.node[14].app.destinationEid = "39,113,90,88,111,9,18,80,109,80,113,77,69,71,84,45,6,100,108,13,112,3,18,76,37,96,69,75,111,41,116,25,10,47,107,64,91,11,78,74,83,98,94,74,41,24,38,65,31,37,96,112,99,37,60,22,119,80,45,46,55,26,85,57,50,70,2,31,36,38,7,10,40,61,78,22,108,52,111,3,36,84,70,94,34,15,103,99,112,67,117,71,17,97,83,108,37,96,36,40"
dtnsim.node[14].app.size = "50,100,100,50,200,500,500,100,100,50,500,500,100,500,100,100,100,500,200,500,500,200,100,50,200,100,500,50,100,100,200,50,50,100,200,200,100,100,500,200,500,50,200,500,500,500,50,100,50,100,200,200,100,50,500,50,100,100,50,200,50,50,500,50,200,50,500,200,100,100,50,200,50,200,200,500,500,500,50,100,500,500,100,100,50,500,500,200,100,500,200,200,500,500,500,200,50,50,500,200"
        # Node 15 random traffic
dtnsim.node[15].app.enable = true
dtnsim.node[15].app.bundlesNumber = "1,1,1,1,1,1,1,1,1,1,1,1,1,1,1,1,1,1,1,1,1,1,1,1,1,1,1,1,1,1,1,1,1,1,1,1,1,1,1,1,1,1,1,1,1,1,1,1,1,1,1,1,1,1,1,1,1,1,1,1,1,1,1,1,1,1,1,1,1,1,1,1,1,1,1,1,1,1,1,1,1,1,1,1,1,1,1,1,1,1,1,1,1,1,1,1,1,1,1,1"
dtnsim.node[15].app.start = "1,19,19,2,9,12,1,15,10,10,18,1,3,9,13,14,5,6,20,18,7,2,9,20,4,5,2,18,5,1,7,13,1,4,5,13,4,18,4,15,12,3,3,11,20,19,11,11,3,17,9,10,2,3,3,9,16,4,5,20,12,12,3,13,1,11,8,6,13,13,19,17,14,16,14,12,20,5,8,8,12,12,12,8,12,19,15,7,12,7,12,13,8,5,2,4,15,18,13,8"
dtnsim.node[15].app.destinationEid = "21,116,46,47,80,76,18,50,10,79,50,103,30,69,46,117,18,56,92,59,18,119,18,46,71,13,30,8,12,17,58,50,54,37,25,112,115,108,82,92,20,51,119,52,55,72,119,53,38,59,97,63,114,114,87,74,76,69,25,9,105,77,47,60,60,5,3,59,30,88,89,113,118,45,66,83,45,116,1,32,55,61,100,2,17,46,110,24,7,43,94,75,91,9,59,63,118,38,113,82"
dtnsim.node[15].app.size = "500,200,500,50,50,500,200,500,50,100,500,50,200,200,100,500,500,100,50,200,200,200,50,100,50,200,100,500,500,500,500,50,50,50,50,500,500,500,500,500,50,50,50,100,200,200,100,100,200,100,500,200,200,50,200,500,200,50,200,200,50,100,500,500,50,200,500,100,100,500,500,50,50,500,100,50,500,200,100,50,50,50,500,500,100,500,200,50,500,200,500,100,200,50,500,200,100,100,100,100"
        # Node 16 random traffic
dtnsim.node[16].app.enable = true
dtnsim.node[16].app.bundlesNumber = "1,1,1,1,1,1,1,1,1,1,1,1,1,1,1,1,1,1,1,1,1,1,1,1,1,1,1,1,1,1,1,1,1,1,1,1,1,1,1,1,1,1,1,1,1,1,1,1,1,1,1,1,1,1,1,1,1,1,1,1,1,1,1,1,1,1,1,1,1,1,1,1,1,1,1,1,1,1,1,1,1,1,1,1,1,1,1,1,1,1,1,1,1,1,1,1,1,1,1,1"
dtnsim.node[16].app.start = "4,13,12,9,17,4,12,19,19,8,3,9,17,18,19,19,12,10,5,18,17,19,11,4,4,3,4,14,3,2,12,7,16,17,9,3,14,12,18,2,7,16,12,16,14,17,4,20,17,10,19,11,2,17,4,17,20,14,10,6,11,5,8,4,14,18,5,14,19,2,6,10,18,7,14,13,1,11,10,11,14,17,9,13,16,11,20,4,11,11,3,5,12,15,16,18,14,13,19,11"
dtnsim.node[16].app.destinationEid = "95,8,66,51,81,38,104,19,90,65,69,40,97,104,86,89,66,112,82,17,21,102,87,83,9,20,111,47,71,70,107,53,50,89,54,104,30,120,45,19,1,64,4,44,14,18,96,12,30,46,30,95,65,34,82,56,118,82,2,107,41,112,15,6,81,57,52,85,115,95,82,115,65,53,18,57,118,12,88,58,99,78,50,23,51,93,83,63,86,47,88,25,25,104,41,12,36,67,69,114"
dtnsim.node[16].app.size = "500,100,100,50,50,500,200,50,500,50,200,500,50,200,200,50,200,50,200,200,50,500,50,100,500,500,200,200,200,50,50,500,100,200,50,500,50,100,200,50,200,100,500,200,100,50,50,500,200,200,500,50,500,50,50,50,50,100,50,100,200,100,200,200,50,50,200,50,50,100,500,100,200,500,500,200,50,200,500,100,500,500,500,200,50,500,500,100,200,500,500,500,50,500,500,500,50,50,200,100"
        # Node 17 random traffic
dtnsim.node[17].app.enable = true
dtnsim.node[17].app.bundlesNumber = "1,1,1,1,1,1,1,1,1,1,1,1,1,1,1,1,1,1,1,1,1,1,1,1,1,1,1,1,1,1,1,1,1,1,1,1,1,1,1,1,1,1,1,1,1,1,1,1,1,1,1,1,1,1,1,1,1,1,1,1,1,1,1,1,1,1,1,1,1,1,1,1,1,1,1,1,1,1,1,1,1,1,1,1,1,1,1,1,1,1,1,1,1,1,1,1,1,1,1,1"
dtnsim.node[17].app.start = "14,16,17,2,20,5,14,16,14,4,4,5,7,4,18,3,11,10,4,20,14,3,7,1,20,3,3,13,17,4,17,17,11,18,12,9,17,8,18,10,20,20,9,2,3,3,2,13,19,3,11,2,15,1,2,13,3,19,16,5,7,19,13,1,3,4,4,15,7,14,9,12,4,6,17,13,2,16,1,14,9,5,16,17,8,4,10,6,17,10,1,14,2,20,11,4,11,17,12,11"
dtnsim.node[17].app.destinationEid = "68,110,81,92,81,29,92,99,75,112,88,105,12,16,81,33,3,16,64,67,92,68,22,54,44,8,94,60,107,117,70,96,112,55,25,110,54,61,69,116,8,73,120,77,101,62,22,67,93,111,119,43,5,69,75,62,68,37,119,27,49,82,42,118,42,44,9,114,99,112,44,73,34,12,99,101,15,5,23,46,108,115,97,85,82,73,50,10,45,61,63,88,101,39,35,21,72,55,118,10"
dtnsim.node[17].app.size = "100,200,500,100,500,500,200,500,200,500,50,50,200,500,100,200,100,100,200,200,200,500,50,500,100,100,50,100,200,200,200,200,500,500,200,100,50,500,100,100,200,500,200,200,500,100,50,200,100,50,200,500,50,100,50,100,50,50,500,50,200,500,500,500,100,200,500,500,500,100,500,500,200,200,500,200,200,200,500,200,500,500,50,200,500,200,200,500,100,200,100,200,50,200,50,100,50,200,500,200"
        # Node 18 random traffic
dtnsim.node[18].app.enable = true
dtnsim.node[18].app.bundlesNumber = "1,1,1,1,1,1,1,1,1,1,1,1,1,1,1,1,1,1,1,1,1,1,1,1,1,1,1,1,1,1,1,1,1,1,1,1,1,1,1,1,1,1,1,1,1,1,1,1,1,1,1,1,1,1,1,1,1,1,1,1,1,1,1,1,1,1,1,1,1,1,1,1,1,1,1,1,1,1,1,1,1,1,1,1,1,1,1,1,1,1,1,1,1,1,1,1,1,1,1,1"
dtnsim.node[18].app.start = "11,1,9,11,14,11,2,14,1,1,13,11,5,7,6,12,13,19,1,8,5,12,12,13,5,4,8,17,19,5,2,10,12,13,10,13,1,4,4,5,20,14,2,12,17,9,3,11,5,20,7,1,18,19,16,12,7,13,18,12,17,11,15,6,3,12,19,14,7,10,9,9,20,5,6,14,8,16,6,5,16,15,2,6,8,13,6,1,14,7,8,11,17,16,1,20,6,12,3,10"
dtnsim.node[18].app.destinationEid = "40,32,9,8,116,6,85,19,34,96,11,36,17,87,100,23,48,84,112,70,36,49,111,98,101,100,1,97,85,59,47,89,66,86,40,12,61,65,109,117,10,93,96,56,31,61,83,58,64,115,36,73,113,84,113,104,82,95,20,84,107,30,6,35,7,108,109,97,106,30,45,16,102,60,61,59,33,117,69,112,10,63,92,91,41,83,110,72,103,79,17,104,27,27,63,95,46,64,8,66"
dtnsim.node[18].app.size = "500,100,200,100,50,200,500,50,100,200,200,100,500,500,100,100,200,50,100,200,500,500,200,500,500,50,50,200,50,500,500,500,100,100,500,500,500,200,500,500,50,500,100,100,200,50,200,100,50,200,50,100,200,100,100,200,200,100,100,500,100,500,500,50,200,50,200,200,50,200,50,100,200,200,200,100,100,200,100,100,100,500,100,200,100,200,200,200,100,100,200,100,50,50,500,200,100,500,50,500"
        # Node 19 random traffic
dtnsim.node[19].app.enable = true
dtnsim.node[19].app.bundlesNumber = "1,1,1,1,1,1,1,1,1,1,1,1,1,1,1,1,1,1,1,1,1,1,1,1,1,1,1,1,1,1,1,1,1,1,1,1,1,1,1,1,1,1,1,1,1,1,1,1,1,1,1,1,1,1,1,1,1,1,1,1,1,1,1,1,1,1,1,1,1,1,1,1,1,1,1,1,1,1,1,1,1,1,1,1,1,1,1,1,1,1,1,1,1,1,1,1,1,1,1,1"
dtnsim.node[19].app.start = "8,1,3,14,9,1,14,16,19,11,8,20,4,3,17,18,8,7,3,17,1,17,14,3,11,14,1,6,19,11,18,20,18,13,15,14,8,11,10,18,12,13,5,14,14,3,20,17,2,3,12,17,15,8,17,11,17,20,9,19,19,14,4,17,5,10,2,18,7,13,3,15,7,7,3,3,7,2,19,19,14,5,17,6,20,16,19,18,6,19,14,12,11,20,10,10,12,15,9,3"
dtnsim.node[19].app.destinationEid = "68,120,119,50,85,44,38,23,30,16,10,93,25,86,47,108,6,91,34,78,45,104,31,106,25,81,53,11,67,7,75,97,18,111,104,29,82,35,53,97,65,11,8,3,46,42,74,1,104,67,35,65,2,9,92,44,53,41,35,74,73,105,89,20,32,31,96,20,2,116,92,30,59,89,37,57,57,73,113,57,11,34,108,6,17,14,116,109,120,48,31,113,60,74,33,67,35,30,55,15"
dtnsim.node[19].app.size = "50,200,100,500,200,50,50,500,100,100,200,500,500,500,200,200,200,200,500,50,200,50,500,200,200,500,100,500,50,100,500,200,200,50,500,50,200,50,500,500,100,500,500,100,100,100,100,50,500,500,50,200,100,50,50,50,200,200,100,100,100,200,200,200,50,100,100,50,200,100,200,200,50,500,100,500,50,200,200,50,100,200,50,200,50,200,50,50,100,500,50,50,50,200,200,500,200,100,100,100"
        # Node 20 random traffic
dtnsim.node[20].app.enable = true
dtnsim.node[20].app.bundlesNumber = "1,1,1,1,1,1,1,1,1,1,1,1,1,1,1,1,1,1,1,1,1,1,1,1,1,1,1,1,1,1,1,1,1,1,1,1,1,1,1,1,1,1,1,1,1,1,1,1,1,1,1,1,1,1,1,1,1,1,1,1,1,1,1,1,1,1,1,1,1,1,1,1,1,1,1,1,1,1,1,1,1,1,1,1,1,1,1,1,1,1,1,1,1,1,1,1,1,1,1,1"
dtnsim.node[20].app.start = "6,9,10,8,12,9,17,7,8,1,11,3,11,6,7,3,15,15,15,2,2,18,4,19,1,7,11,19,7,14,2,2,1,7,4,6,11,3,14,7,20,10,1,11,5,3,18,7,10,15,5,2,18,9,9,13,19,10,18,12,11,8,20,1,15,20,18,10,17,9,10,5,15,14,2,13,9,6,18,10,6,8,4,6,9,16,5,13,15,6,4,10,1,15,12,1,13,9,7,7"
dtnsim.node[20].app.destinationEid = "82,48,70,62,54,51,36,54,43,54,59,32,106,58,22,33,82,10,13,58,36,72,17,21,110,58,68,101,46,35,26,37,33,32,43,36,103,117,51,37,75,105,100,40,101,91,31,93,41,48,61,81,78,6,3,89,42,18,99,95,16,6,94,109,9,39,103,33,52,95,107,46,3,26,9,4,104,60,49,114,89,105,112,88,16,100,103,54,46,120,39,1,106,31,105,71,19,38,107,29"
dtnsim.node[20].app.size = "50,100,200,200,50,500,50,50,500,50,200,500,500,100,100,200,500,500,200,50,500,50,200,200,100,200,100,100,200,100,200,200,500,500,100,200,50,500,500,500,200,100,200,200,500,500,500,100,100,200,200,100,100,500,100,200,200,200,200,500,200,100,500,50,100,200,50,100,50,200,50,100,200,200,500,500,100,100,100,200,100,500,200,200,500,50,200,100,100,50,100,500,50,200,100,50,50,100,200,500"
        # Node 21 random traffic
dtnsim.node[21].app.enable = true
dtnsim.node[21].app.bundlesNumber = "1,1,1,1,1,1,1,1,1,1,1,1,1,1,1,1,1,1,1,1,1,1,1,1,1,1,1,1,1,1,1,1,1,1,1,1,1,1,1,1,1,1,1,1,1,1,1,1,1,1,1,1,1,1,1,1,1,1,1,1,1,1,1,1,1,1,1,1,1,1,1,1,1,1,1,1,1,1,1,1,1,1,1,1,1,1,1,1,1,1,1,1,1,1,1,1,1,1,1,1"
dtnsim.node[21].app.start = "1,4,16,3,14,14,5,14,15,14,10,19,6,19,16,13,19,18,16,6,14,19,14,9,8,3,20,6,5,9,8,10,1,10,14,1,18,8,1,1,9,15,3,7,15,9,14,9,14,4,19,16,6,1,10,6,8,19,9,4,7,7,11,6,2,10,7,9,4,18,10,13,7,3,13,5,5,14,14,6,12,17,10,7,12,19,14,13,4,13,4,16,2,1,14,12,1,16,8,11"
dtnsim.node[21].app.destinationEid = "25,96,70,104,37,43,71,60,76,38,78,113,8,44,38,24,118,113,46,15,6,99,89,5,68,18,118,56,75,89,117,58,22,35,47,29,109,63,47,28,50,19,10,110,101,28,67,93,120,95,19,10,48,111,79,85,92,58,41,113,35,40,52,35,2,53,83,65,82,19,110,36,67,84,103,15,87,96,106,68,68,3,114,29,46,57,83,13,31,84,33,22,69,34,59,116,39,112,117,61"
dtnsim.node[21].app.size = "100,200,200,100,50,50,50,50,100,100,500,500,50,500,50,50,200,500,200,200,50,100,50,50,100,100,100,50,100,100,200,100,500,200,500,500,50,50,100,100,500,500,100,200,200,500,50,500,500,50,500,200,500,100,500,200,100,50,100,100,50,50,500,50,100,500,200,500,50,500,200,500,50,100,200,200,100,100,50,100,200,50,200,100,500,500,100,50,500,500,100,500,100,200,200,100,500,100,500,100"
        # Node 22 random traffic
dtnsim.node[22].app.enable = true
dtnsim.node[22].app.bundlesNumber = "1,1,1,1,1,1,1,1,1,1,1,1,1,1,1,1,1,1,1,1,1,1,1,1,1,1,1,1,1,1,1,1,1,1,1,1,1,1,1,1,1,1,1,1,1,1,1,1,1,1,1,1,1,1,1,1,1,1,1,1,1,1,1,1,1,1,1,1,1,1,1,1,1,1,1,1,1,1,1,1,1,1,1,1,1,1,1,1,1,1,1,1,1,1,1,1,1,1,1,1"
dtnsim.node[22].app.start = "14,6,2,11,15,18,20,13,10,15,16,17,3,9,12,5,14,5,14,9,12,1,14,4,1,4,16,1,5,16,11,4,3,15,2,20,19,9,14,9,9,19,17,15,12,2,3,12,8,9,8,7,9,17,4,10,12,7,10,12,9,15,1,12,11,3,19,11,7,10,15,1,17,13,5,9,1,18,12,15,6,11,8,20,9,20,10,14,2,11,20,20,7,3,7,4,19,1,12,14"
dtnsim.node[22].app.destinationEid = "3,85,37,90,93,89,39,90,36,81,1,17,111,88,33,34,114,73,39,56,20,100,9,91,105,35,119,32,6,73,29,44,71,32,61,4,63,6,51,103,100,83,91,95,94,41,1,21,67,37,77,113,72,92,112,104,29,28,103,11,99,26,19,23,36,45,111,112,94,21,103,76,64,104,16,4,38,12,119,103,54,109,109,95,38,7,92,115,114,94,39,53,81,79,58,85,15,97,99,2"