[General]
network = src.dtnsim										
repeat = 1
allow-object-stealing-on-deletion = true

# Simulation end time
sim-time-limit = 84600s

# Nodes quantity (identifiers (EiDs) matches their index, EiD=0 is ignored)			
dtnsim.nodesNumber = 240
dtnsim.node[*].icon = "satellite"

# Nodes's failure rates
dtnsim.node[*].fault.enable = false
dtnsim.node[*].fault.meanTTF = 0s
dtnsim.node[*].fault.meanTTR = 0s

# Mobility
dtnsim.node[*].hasMobility = true
dtnsim.node[*].norad.satIndex = parentIndex()
dtnsim.node[*].norad.satName = "sat"
**.updateInterval = 20s
**.numOfSats = 240
**.satPerPlane = 12
**.altitude = 540
**.planes = 20
**.phaseOffset = 11

dtnsim.node[*].dtn.routing = "antop"
dtnsim.node[*].dtn.printRoutingDebug = true

# --- Random Traffic Configuration ---
# Node 1 random conversational traffic
dtnsim.node[1].app.enable = true
dtnsim.node[1].app.bundlesNumber = "4,3,2,3,5,4,5,3,2,2,2,5,2,3,3,2,1,2,2,2,4,2,4,4,5,1,4,4,1,5,5,4,2,1,3,4,3,4,1,3,2,4,3,1,5,1,4,2,2,5,2,5,4,4,4,1,5,2,5,2,1,1,5,4,1,5,4,5,3,3,4,3,4,1,1,3,2,2,5,5,5,1,3,4,3,4,3,2,3,2,5,5,4,4,2,4,3,2,2,1"
dtnsim.node[1].app.start = "99,55,19,2,49,21,15,1,62,71,70,31,33,85,12,38,36,43,73,100,65,87,15,6,57,48,56,25,47,54,11,69,7,54,63,97,57,62,16,15,41,43,36,90,10,46,83,78,52,51,14,14,10,15,66,76,43,69,76,30,93,28,88,87,22,25,38,97,92,15,75,76,48,65,48,43,67,52,92,6,18,88,11,11,79,39,82,90,89,77,41,67,30,44,50,21,31,52,28,72"
dtnsim.node[1].app.destinationEid = "2,2,2,2,2,2,2,2,2,2,2,2,2,2,2,2,2,2,2,2,2,2,2,2,2,2,2,2,2,2,2,2,2,2,2,2,2,2,2,2,2,2,2,2,2,2,2,2,2,2,2,2,2,2,2,2,2,2,2,2,2,2,2,2,2,2,2,2,2,2,2,2,2,2,2,2,2,2,2,2,2,2,2,2,2,2,2,2,2,2,2,2,2,2,2,2,2,2,2,2"
dtnsim.node[1].app.size = "500,200,500,200,200,200,100,500,100,500,500,200,500,200,200,200,200,500,50,200,100,200,100,200,100,200,500,50,100,500,500,50,200,500,100,500,500,500,500,100,50,200,200,100,50,200,500,50,500,200,200,500,100,500,100,100,500,50,100,50,500,50,500,50,50,50,100,50,500,500,100,200,200,500,200,500,200,100,100,50,50,50,500,100,500,50,50,500,500,50,200,100,500,50,100,500,200,500,100,100"
# Node 2 random conversational traffic
dtnsim.node[2].app.enable = true
dtnsim.node[2].app.bundlesNumber = "3,4,4,4,4,3,3,3,2,5,1,3,1,1,3,1,5,1,1,4,2,3,3,4,1,3,2,5,3,1,5,5,5,5,1,2,1,2,4,5,5,3,4,2,3,4,1,3,3,2,3,1,1,5,2,2,1,1,5,5,4,2,5,2,4,4,4,1,1,4,1,4,5,2,1,1,4,2,5,5,3,3,3,4,1,3,4,3,3,4,5,4,5,4,5,2,1,4,4,5"
dtnsim.node[2].app.start = "56,11,10,64,71,40,36,40,42,100,73,22,12,58,51,61,33,56,76,16,58,64,98,63,72,18,21,49,38,56,89,58,15,14,25,68,80,45,79,86,35,97,91,27,45,100,96,58,66,56,93,28,17,89,91,98,93,73,40,53,37,46,65,36,29,38,15,34,45,5,79,54,78,3,71,64,15,39,63,61,54,7,14,75,52,79,2,25,78,31,87,85,14,24,44,9,28,74,77,56"
dtnsim.node[2].app.destinationEid = "1,1,1,1,1,1,1,1,1,1,1,1,1,1,1,1,1,1,1,1,1,1,1,1,1,1,1,1,1,1,1,1,1,1,1,1,1,1,1,1,1,1,1,1,1,1,1,1,1,1,1,1,1,1,1,1,1,1,1,1,1,3,3,3,3,3,3,3,3,3,3,3,3,3,3,3,3,3,3,3,3,3,3,3,3,3,3,3,3,3,3,3,3,3,3,3,3,3,3,3"
dtnsim.node[2].app.size = "200,50,100,50,500,500,200,200,50,50,50,500,100,200,100,100,100,500,100,200,100,100,50,100,100,100,500,50,200,100,200,200,200,50,200,100,200,200,500,500,200,50,50,50,500,200,100,50,200,100,100,50,100,200,200,100,100,500,200,50,200,500,200,500,50,200,50,50,100,200,500,200,500,500,100,50,100,500,100,50,500,200,500,50,500,200,500,500,500,200,100,100,500,500,50,500,200,50,50,500"
# Node 3 random conversational traffic
dtnsim.node[3].app.enable = true
dtnsim.node[3].app.bundlesNumber = "5,3,5,5,5,2,4,1,2,3,5,4,2,1,4,2,4,3,4,2,2,2,1,3,4,4,4,1,2,1,2,3,5,4,4,1,1,3,4,5,5,2,3,2,5,3,4,2,1,1,3,3,4,1,5,1,3,4,3,5,1,3,4,5,4,4,5,1,1,2,5,1,3,1,2,4,3,2,4,2,4,3,2,3,4,3,4,4,5,2,1,1,3,3,3,1,4,3,2,4"
dtnsim.node[3].app.start = "70,38,16,51,12,85,9,75,20,58,20,80,53,87,3,84,16,25,45,11,29,83,83,85,85,93,46,93,37,22,27,35,82,69,11,95,80,1,54,91,55,2,5,91,59,80,69,88,33,58,54,50,49,18,64,16,31,48,19,23,93,13,21,49,76,13,82,30,30,6,100,11,57,55,98,19,100,66,7,45,59,58,19,41,76,41,84,85,5,99,84,53,74,7,21,10,34,30,66,30"
dtnsim.node[3].app.destinationEid = "2,2,2,2,2,2,2,2,2,2,2,2,2,2,2,2,2,2,2,2,2,2,2,4,4,4,4,4,4,4,4,4,4,4,4,4,4,4,4,4,4,4,4,4,4,4,4,4,4,4,4,4,4,4,4,4,4,4,4,4,4,4,4,4,4,4,4,4,4,4,4,4,4,4,4,4,4,4,4,4,4,4,4,4,4,4,4,4,4,4,4,4,4,4,4,4,4,4,4,4"
dtnsim.node[3].app.size = "500,100,100,500,100,50,500,50,200,200,100,100,500,200,500,200,50,50,50,50,200,200,100,50,100,50,100,500,200,100,50,500,200,200,100,200,100,500,200,200,50,500,500,500,50,50,500,200,100,500,100,50,200,50,200,200,500,50,200,100,50,100,50,100,200,50,50,100,200,50,200,200,100,500,500,100,50,200,200,100,500,50,500,200,100,500,200,50,500,200,50,200,500,100,50,200,200,200,100,50"
# Node 4 random conversational traffic
dtnsim.node[4].app.enable = true
dtnsim.node[4].app.bundlesNumber = "3,2,5,5,1,1,5,2,1,4,4,1,4,5,1,2,5,4,1,5,5,3,1,4,4,5,4,4,1,2,3,3,2,4,3,2,5,2,1,4,1,3,5,1,3,1,2,1,5,4,2,2,1,4,5,5,2,5,5,3,3,4,5,3,4,1,1,1,5,1,3,5,1,3,3,2,3,1,5,3,3,4,4,2,3,4,3,5,3,1,1,1,2,4,4,1,5,3,2,4"
dtnsim.node[4].app.start = "90,99,29,87,17,96,84,2,61,92,9,97,85,96,35,62,54,22,65,21,35,21,30,55,14,34,65,59,99,27,67,59,93,13,100,56,75,8,18,40,37,62,38,3,55,8,47,95,16,7,5,17,58,14,85,34,55,5,15,18,14,79,72,29,48,27,82,49,71,96,7,27,96,85,67,86,98,48,44,68,82,30,14,1,60,84,75,9,30,93,19,6,30,11,27,76,71,19,94,83"
dtnsim.node[4].app.destinationEid = "3,3,3,3,3,3,3,3,3,3,3,3,3,3,3,3,3,3,3,3,3,3,3,3,3,3,3,3,3,3,3,3,3,3,3,3,3,3,3,3,3,5,5,5,5,5,5,5,5,5,5,5,5,5,5,5,5,5,5,5,5,5,5,5,5,5,5,5,5,5,5,5,5,5,5,5,5,5,5,5,5,5,5,5,5,5,5,5,5,5,5,5,5,5,5,5,5,5,5,5"
dtnsim.node[4].app.size = "50,200,100,100,100,200,500,200,500,100,50,50,100,100,100,100,100,100,500,200,200,100,200,500,200,100,50,200,100,100,100,200,100,200,100,200,100,50,100,50,500,50,50,200,50,50,500,200,500,100,200,100,200,50,200,100,500,200,200,200,200,500,200,200,100,50,200,200,500,200,500,100,100,50,50,500,200,50,50,500,200,200,50,200,200,50,200,50,200,100,50,50,500,50,50,50,500,50,500,100"
# Node 5 random conversational traffic
dtnsim.node[5].app.enable = true
dtnsim.node[5].app.bundlesNumber = "5,4,5,4,3,2,3,2,3,3,4,1,1,3,1,3,3,5,1,1,2,4,3,1,2,2,4,4,2,3,4,2,1,4,4,4,5,3,3,4,4,4,3,3,4,5,4,1,4,1,4,2,2,1,4,3,4,4,3,3,3,1,3,4,4,2,1,2,2,2,2,3,1,1,1,5,1,1,4,2,4,3,5,2,2,4,2,1,4,5,5,5,1,3,2,4,5,1,1,5"
dtnsim.node[5].app.start = "69,43,8,18,63,19,36,62,21,56,84,59,99,17,37,100,93,99,84,36,16,86,76,12,35,28,9,39,13,36,28,45,41,80,28,53,72,38,13,32,42,63,49,32,42,17,85,76,20,70,32,3,8,62,70,82,61,5,26,97,65,4,29,64,32,61,30,49,91,15,84,91,18,25,11,54,40,73,100,15,63,9,55,74,13,5,88,59,90,78,48,24,28,25,96,19,14,19,42,60"
dtnsim.node[5].app.destinationEid = "4,4,4,4,4,4,4,4,4,4,4,4,4,4,4,4,4,4,4,4,4,4,4,4,4,4,4,4,4,4,4,6,6,6,6,6,6,6,6,6,6,6,6,6,6,6,6,6,6,6,6,6,6,6,6,6,6,6,6,6,6,6,6,6,6,6,6,6,6,6,6,6,6,6,6,6,6,6,6,6,6,6,6,6,6,6,6,6,6,6,6,6,6,6,6,6,6,6,6,6"
dtnsim.node[5].app.size = "100,200,200,50,100,500,200,500,100,500,200,100,50,50,200,50,100,200,50,50,100,500,100,100,200,50,500,500,100,100,50,50,200,100,200,200,500,100,200,50,200,100,500,50,200,100,200,100,50,500,100,500,200,100,100,100,100,200,100,50,200,50,200,50,200,200,500,100,200,200,50,100,100,50,200,500,200,200,100,200,50,50,500,50,50,500,200,50,50,50,500,100,50,50,100,50,100,200,50,50"
# Node 6 random conversational traffic
dtnsim.node[6].app.enable = true
dtnsim.node[6].app.bundlesNumber = "4,5,2,1,1,4,4,2,2,5,5,5,5,4,2,1,2,4,1,3,5,2,1,4,3,5,3,2,1,1,5,1,4,5,2,5,1,5,5,4,3,3,5,5,5,2,5,3,2,1,4,1,2,3,3,3,1,5,4,5,2,5,4,2,5,1,5,3,4,2,1,5,3,4,4,1,2,3,3,4,1,4,2,2,4,5,1,2,1,2,4,2,1,2,1,2,4,1,2,1"
dtnsim.node[6].app.start = "46,47,85,36,21,34,50,65,39,19,28,74,35,15,75,87,68,8,73,7,36,67,63,51,94,100,35,18,59,100,63,81,22,11,97,63,98,99,29,50,97,62,61,57,54,53,46,59,15,29,68,15,25,44,44,60,25,64,51,31,65,88,86,96,57,5,64,65,6,3,87,31,98,34,9,52,95,78,73,80,41,3,20,59,63,14,67,53,40,34,61,40,83,77,86,76,36,100,65,24"
dtnsim.node[6].app.destinationEid = "5,5,5,5,5,5,5,5,5,5,5,5,5,5,5,5,5,5,5,5,5,5,5,5,5,5,5,5,5,5,5,5,5,5,5,5,5,5,5,5,7,7,7,7,7,7,7,7,7,7,7,7,7,7,7,7,7,7,7,7,7,7,7,7,7,7,7,7,7,7,7,7,7,7,7,7,7,7,7,7,7,7,7,7,7,7,7,7,7,7,7,7,7,7,7,7,7,7,7,7"
dtnsim.node[6].app.size = "500,200,500,200,100,50,100,500,200,200,50,50,500,50,50,200,100,50,500,500,200,500,100,100,500,100,500,100,100,500,100,500,50,500,500,500,100,200,200,200,100,200,500,500,500,50,200,100,500,500,50,50,500,100,500,100,100,100,50,500,500,500,100,200,500,50,200,50,100,200,100,100,200,100,50,100,50,50,50,100,200,50,100,50,50,200,200,500,100,100,200,100,100,500,500,500,50,500,200,50"
# Node 7 random conversational traffic
dtnsim.node[7].app.enable = true
dtnsim.node[7].app.bundlesNumber = "2,1,4,1,5,2,1,5,4,5,2,2,1,5,5,3,3,3,1,1,3,3,1,5,1,4,1,3,3,1,4,2,2,5,5,2,5,3,4,5,4,3,5,2,5,3,3,5,1,2,1,2,2,1,5,3,2,2,5,4,2,1,2,1,5,4,2,5,3,5,3,1,1,5,5,1,5,4,2,1,1,4,3,1,4,5,2,4,5,4,2,2,2,1,4,5,3,2,4,3"
dtnsim.node[7].app.start = "65,69,64,58,58,54,67,18,73,23,27,48,28,74,53,39,66,96,99,69,39,43,81,88,8,24,66,57,45,44,46,87,78,28,20,55,19,80,41,67,14,41,45,37,67,30,82,80,44,37,5,68,34,99,61,30,28,3,75,94,18,81,50,10,40,55,43,37,95,81,50,16,80,53,90,100,8,33,52,7,72,59,90,65,99,41,33,48,31,70,19,13,17,51,70,86,10,9,48,84"
dtnsim.node[7].app.destinationEid = "6,6,6,6,6,6,6,6,6,6,6,6,6,6,6,6,6,6,6,6,6,6,6,6,6,6,6,6,6,6,6,6,6,6,8,8,8,8,8,8,8,8,8,8,8,8,8,8,8,8,8,8,8,8,8,8,8,8,8,8,8,8,8,8,8,8,8,8,8,8,8,8,8,8,8,8,8,8,8,8,8,8,8,8,8,8,8,8,8,8,8,8,8,8,8,8,8,8,8,8"
dtnsim.node[7].app.size = "50,100,200,500,100,50,500,200,200,50,500,500,500,100,200,50,100,50,100,500,200,200,500,200,100,500,200,100,200,500,50,50,500,50,50,500,200,50,200,50,50,100,50,500,100,500,200,50,500,100,50,500,50,100,50,100,500,50,500,200,500,100,50,500,500,200,500,500,50,50,50,200,100,50,100,500,100,200,50,100,100,50,200,200,50,500,200,50,200,50,200,200,100,100,50,200,50,500,200,50"
# Node 8 random conversational traffic
dtnsim.node[8].app.enable = true
dtnsim.node[8].app.bundlesNumber = "4,1,3,1,3,4,3,5,1,5,1,4,1,4,1,4,4,5,4,5,3,2,5,3,5,5,5,1,2,2,2,2,4,4,5,2,4,1,5,2,4,4,5,3,1,1,1,5,2,2,5,2,5,2,2,4,5,1,3,1,4,5,5,3,5,3,1,4,5,3,3,3,1,1,3,3,2,1,1,3,4,3,3,5,4,5,1,5,3,3,1,1,5,2,4,5,1,3,3,2"
dtnsim.node[8].app.start = "24,60,26,87,43,47,49,38,76,33,87,47,75,39,64,96,88,17,50,64,49,40,100,85,55,61,99,100,42,59,13,61,97,71,78,25,21,21,74,10,69,26,45,54,16,48,79,58,18,58,92,29,67,84,97,27,20,45,59,58,48,51,90,34,6,50,80,23,87,15,3,71,86,4,80,25,42,35,46,61,78,80,61,63,15,56,30,71,42,83,55,29,53,80,61,29,46,82,13,63"
dtnsim.node[8].app.destinationEid = "7,7,7,7,7,7,7,7,7,7,7,7,7,7,7,7,7,7,7,7,7,7,7,7,7,7,7,7,7,7,7,7,7,7,7,7,7,7,7,7,9,9,9,9,9,9,9,9,9,9,9,9,9,9,9,9,9,9,9,9,9,9,9,9,9,9,9,9,9,9,9,9,9,9,9,9,9,9,9,9,9,9,9,9,9,9,9,9,9,9,9,9,9,9,9,9,9,9,9,9"
dtnsim.node[8].app.size = "500,500,200,200,100,500,100,500,500,200,100,50,500,100,50,50,500,50,50,500,200,100,500,50,200,500,200,500,500,500,100,500,50,100,200,200,50,50,500,100,200,100,500,200,50,200,200,500,200,200,50,50,50,50,50,50,500,100,50,500,200,500,500,200,200,50,200,100,200,100,500,50,100,100,500,100,500,100,100,500,200,50,200,50,100,200,200,200,100,50,50,100,500,500,500,50,500,100,100,100"
# Node 9 random conversational traffic
dtnsim.node[9].app.enable = true
dtnsim.node[9].app.bundlesNumber = "3,5,1,1,2,2,4,5,4,4,1,2,2,3,5,3,2,4,5,5,1,1,5,5,5,4,2,1,1,5,5,3,4,4,1,3,2,2,4,3,2,3,3,1,5,4,5,3,5,1,3,3,3,1,4,1,1,5,3,3,1,1,1,1,1,3,1,2,4,1,4,1,3,4,4,2,2,3,4,2,4,2,5,3,2,1,2,3,5,4,1,2,5,2,1,1,4,1,3,2"
dtnsim.node[9].app.start = "71,27,87,26,98,90,98,67,49,55,93,53,82,4,5,26,51,52,85,89,66,74,46,59,81,63,37,49,85,21,100,13,37,59,10,42,67,38,37,40,50,86,65,89,37,10,82,92,72,70,23,69,2,48,17,7,95,94,78,66,61,44,63,40,32,35,14,27,82,5,53,76,45,36,27,33,32,56,7,5,78,92,30,46,36,60,3,51,23,87,55,4,49,59,86,25,72,42,5,79"
dtnsim.node[9].app.destinationEid = "8,8,8,8,8,8,8,8,8,8,8,8,8,8,8,8,8,8,8,8,8,8,8,8,8,8,8,8,8,8,10,10,10,10,10,10,10,10,10,10,10,10,10,10,10,10,10,10,10,10,10,10,10,10,10,10,10,10,10,10,10,10,10,10,10,10,10,10,10,10,10,10,10,10,10,10,10,10,10,10,10,10,10,10,10,10,10,10,10,10,10,10,10,10,10,10,10,10,10,10"
dtnsim.node[9].app.size = "500,500,50,200,500,100,50,50,100,100,200,50,500,50,200,100,100,100,100,500,200,100,50,200,200,50,100,200,50,100,100,200,500,100,100,500,200,200,200,100,500,100,200,200,100,200,500,500,500,200,50,500,200,500,200,500,50,200,200,50,200,200,50,200,100,100,200,50,100,100,100,100,100,500,100,500,50,100,50,200,500,200,100,200,500,50,50,500,100,100,50,50,500,500,200,50,200,100,100,500"
# Node 10 random conversational traffic
dtnsim.node[10].app.enable = true
dtnsim.node[10].app.bundlesNumber = "4,4,3,3,2,5,2,4,4,5,5,1,4,4,2,1,3,5,4,2,3,4,3,4,5,1,5,1,3,5,1,4,5,4,3,1,2,3,3,5,1,4,3,3,3,5,2,3,1,1,2,3,1,5,1,4,2,1,3,1,5,4,5,5,4,5,1,2,5,4,1,3,3,3,5,2,3,4,3,5,1,5,3,5,3,1,3,1,4,5,1,2,4,3,2,2,3,5,4,1"
dtnsim.node[10].app.start = "16,69,46,44,45,53,94,67,93,41,15,73,78,9,58,9,97,97,82,68,48,37,20,31,84,79,47,41,36,35,39,61,15,12,83,94,36,45,70,62,12,54,66,33,52,67,13,2,15,90,25,43,42,66,53,71,46,88,34,99,18,25,72,56,67,47,46,56,45,43,64,76,10,83,64,52,59,12,22,41,15,19,1,93,36,1,100,39,53,37,44,68,98,30,36,2,12,49,48,37"
dtnsim.node[10].app.destinationEid = "9,9,9,9,9,9,9,9,9,9,9,9,9,9,9,9,9,9,9,9,9,9,9,9,9,9,9,9,9,9,9,9,9,9,9,9,9,9,9,9,9,9,9,9,9,11,11,11,11,11,11,11,11,11,11,11,11,11,11,11,11,11,11,11,11,11,11,11,11,11,11,11,11,11,11,11,11,11,11,11,11,11,11,11,11,11,11,11,11,11,11,11,11,11,11,11,11,11,11,11"
dtnsim.node[10].app.size = "50,500,200,200,50,500,50,500,50,100,200,50,200,50,100,50,50,50,100,100,100,500,100,100,100,500,100,50,50,200,100,500,500,200,100,500,500,100,500,500,500,500,500,500,50,50,500,50,50,100,100,100,50,500,500,100,500,50,200,50,50,500,50,200,500,500,500,100,500,100,50,100,200,200,100,200,500,50,50,50,50,200,200,50,500,50,100,500,500,200,200,200,100,100,200,50,50,100,100,100"
# Node 11 random conversational traffic
dtnsim.node[11].app.enable = true
dtnsim.node[11].app.bundlesNumber = "3,3,2,2,4,1,3,1,4,5,3,4,3,5,3,2,5,4,1,2,5,4,4,1,2,4,4,5,3,3,3,4,5,2,4,5,2,5,3,4,4,2,3,4,5,3,5,4,5,4,2,2,3,1,4,2,2,5,2,2,2,1,1,5,3,5,1,5,1,1,4,4,2,2,4,5,4,5,3,3,1,4,5,2,1,4,4,5,5,3,1,3,3,5,4,4,1,4,2,3"
dtnsim.node[11].app.start = "16,48,70,63,76,54,93,43,28,79,59,56,56,62,54,47,81,14,59,60,20,29,22,21,3,46,3,44,59,48,69,45,11,53,41,87,35,20,66,6,16,58,75,85,89,19,39,95,3,51,45,17,94,84,95,62,100,42,58,94,71,84,35,65,22,96,64,88,11,97,67,58,42,87,5,28,76,49,3,70,81,62,30,13,51,21,82,98,80,73,12,55,41,60,54,27,32,17,56,22"
dtnsim.node[11].app.destinationEid = "10,10,10,10,10,10,10,10,10,10,10,10,10,10,10,10,10,10,10,10,10,10,10,10,10,10,10,10,10,10,10,10,10,10,10,12,12,12,12,12,12,12,12,12,12,12,12,12,12,12,12,12,12,12,12,12,12,12,12,12,12,12,12,12,12,12,12,12,12,12,12,12,12,12,12,12,12,12,12,12,12,12,12,12,12,12,12,12,12,12,12,12,12,12,12,12,12,12,12,12"
dtnsim.node[11].app.size = "100,200,50,50,500,50,500,500,100,500,200,100,100,100,500,200,200,100,50,100,50,50,500,100,100,50,100,500,500,200,500,500,200,200,200,500,500,500,200,500,500,500,100,200,100,50,200,100,500,500,100,500,500,200,500,100,200,200,500,50,500,100,100,50,100,100,100,50,100,50,100,500,100,500,500,50,100,50,200,100,500,100,200,100,50,200,200,500,100,500,50,200,50,50,50,500,200,500,500,500"
# Node 12 random conversational traffic
dtnsim.node[12].app.enable = true
dtnsim.node[12].app.bundlesNumber = "2,3,2,4,5,3,2,1,4,5,2,2,5,2,4,1,1,2,1,2,2,5,2,4,4,3,3,3,3,2,3,1,5,5,4,3,2,3,2,1,3,3,2,4,3,4,5,2,2,5,4,1,1,5,3,1,1,5,5,3,2,1,3,2,1,4,3,4,3,5,2,3,5,4,2,1,1,5,1,5,1,5,3,5,2,1,1,5,5,1,1,1,2,4,1,5,1,5,5,3"
dtnsim.node[12].app.start = "93,36,25,69,26,78,26,43,97,7,48,18,96,63,100,61,74,88,66,24,99,73,95,20,68,94,8,34,84,54,12,87,16,52,29,87,82,74,16,42,70,57,28,23,40,77,14,14,27,39,89,49,39,91,70,4,95,9,41,97,7,25,98,99,9,85,58,43,33,35,61,52,5,9,46,90,23,29,95,80,84,18,89,28,89,81,47,62,90,93,25,22,38,1,63,34,70,99,28,20"
dtnsim.node[12].app.destinationEid = "11,11,11,11,11,11,11,11,11,11,11,11,11,11,11,11,11,11,11,11,11,11,11,11,11,11,11,11,11,11,11,11,11,11,11,11,11,11,11,11,11,11,11,11,13,13,13,13,13,13,13,13,13,13,13,13,13,13,13,13,13,13,13,13,13,13,13,13,13,13,13,13,13,13,13,13,13,13,13,13,13,13,13,13,13,13,13,13,13,13,13,13,13,13,13,13,13,13,13,13"
dtnsim.node[12].app.size = "100,50,50,50,500,500,500,200,50,200,500,100,200,100,50,500,200,200,100,500,100,50,500,100,50,100,50,500,50,100,100,100,500,500,50,500,50,50,100,50,100,50,50,100,500,200,500,200,200,100,100,200,50,50,200,200,500,50,200,500,500,50,50,100,200,500,50,200,200,500,50,500,200,50,500,100,200,500,200,100,200,100,200,500,50,50,200,100,100,500,500,50,100,200,100,50,100,100,200,100"
# Node 13 random conversational traffic
dtnsim.node[13].app.enable = true
dtnsim.node[13].app.bundlesNumber = "1,5,2,4,4,2,4,4,4,4,2,4,2,2,4,5,3,2,4,1,5,1,4,1,5,3,2,3,4,2,3,1,1,1,5,5,3,4,1,1,1,4,5,1,1,1,1,3,3,3,2,1,3,2,4,4,2,5,1,5,1,4,1,4,1,2,1,2,1,3,2,4,2,2,1,1,2,5,4,1,1,3,4,4,2,1,4,3,1,4,3,4,3,2,5,3,2,2,2,3"
dtnsim.node[13].app.start = "17,47,98,79,10,50,16,99,10,87,65,47,35,13,95,26,38,97,82,87,25,93,97,85,69,100,31,46,9,64,40,100,65,56,58,31,28,85,96,55,98,7,32,36,83,45,100,78,79,56,84,52,89,67,7,29,32,12,61,55,75,54,15,53,10,87,28,68,94,48,33,21,2,79,93,3,30,88,51,72,86,30,99,20,24,56,48,96,94,76,38,71,48,33,4,20,22,29,72,59"
dtnsim.node[13].app.destinationEid = "12,12,12,12,12,12,12,12,12,12,12,12,12,12,12,12,12,12,12,12,12,12,12,12,12,12,12,12,12,12,12,12,14,14,14,14,14,14,14,14,14,14,14,14,14,14,14,14,14,14,14,14,14,14,14,14,14,14,14,14,14,14,14,14,14,14,14,14,14,14,14,14,14,14,14,14,14,14,14,14,14,14,14,14,14,14,14,14,14,14,14,14,14,14,14,14,14,14,14,14"
dtnsim.node[13].app.size = "200,200,500,50,200,200,500,50,100,100,100,100,50,100,50,200,50,500,100,500,50,100,200,100,200,500,50,200,100,500,200,200,50,50,100,200,200,500,500,500,200,50,100,50,50,200,200,500,50,200,200,200,500,500,50,50,200,100,200,500,500,100,100,200,50,50,500,100,50,200,500,200,50,500,100,500,200,100,500,100,200,50,100,500,50,500,200,200,200,500,50,200,200,500,50,50,100,100,50,100"
# Node 14 random conversational traffic
dtnsim.node[14].app.enable = true
dtnsim.node[14].app.bundlesNumber = "5,1,1,3,2,1,3,5,3,3,1,3,4,5,2,1,2,2,4,3,4,2,5,1,2,1,1,2,1,5,3,5,5,3,5,2,1,4,2,3,4,3,2,3,1,1,2,2,5,2,3,4,1,5,5,5,4,2,1,5,1,4,3,5,1,4,1,1,4,2,4,3,4,5,2,3,3,3,3,3,5,4,1,1,4,4,1,4,4,1,4,4,1,5,3,3,2,4,3,4"
dtnsim.node[14].app.start = "61,60,40,35,65,16,35,42,87,100,82,87,57,92,34,14,61,79,57,57,19,34,71,99,55,37,31,97,33,97,78,90,34,27,31,57,86,77,42,6,25,35,74,65,54,55,51,95,52,58,69,22,7,10,61,21,36,45,74,36,69,33,85,29,13,12,20,100,8,86,100,45,50,61,62,40,94,20,8,15,71,94,6,100,47,2,24,85,12,6,17,54,25,82,42,95,29,79,18,25"
dtnsim.node[14].app.destinationEid = "13,13,13,13,13,13,13,13,13,13,13,13,13,13,13,13,13,13,13,13,13,13,13,13,13,13,13,13,13,13,13,13,13,13,13,13,13,13,13,13,13,13,13,13,15,15,15,15,15,15,15,15,15,15,15,15,15,15,15,15,15,15,15,15,15,15,15,15,15,15,15,15,15,15,15,15,15,15,15,15,15,15,15,15,15,15,15,15,15,15,15,15,15,15,15,15,15,15,15,15"
dtnsim.node[14].app.size = "200,50,100,500,100,50,50,100,50,50,100,100,50,100,200,100,200,500,500,500,50,100,500,100,500,500,200,500,200,50,50,500,200,200,200,500,200,100,200,200,50,200,500,500,500,200,50,100,100,200,200,500,500,100,50,50,500,100,500,200,50,200,200,100,50,500,500,50,100,500,200,500,500,500,100,50,50,100,500,500,100,200,200,50,100,200,50,100,50,50,50,200,500,200,500,100,200,100,100,500"
# Node 15 random conversational traffic
dtnsim.node[15].app.enable = true
dtnsim.node[15].app.bundlesNumber = "2,2,5,4,2,2,5,4,4,1,5,5,2,5,2,1,3,5,2,5,2,2,4,4,5,4,4,3,4,4,4,2,1,2,3,5,3,3,3,5,3,5,5,2,4,4,3,2,2,4,5,5,3,1,3,1,2,1,1,4,2,1,4,2,3,5,3,5,3,3,4,5,1,5,4,5,1,5,4,4,1,4,2,5,3,2,2,2,3,5,1,2,1,3,5,1,5,1,5,3"
dtnsim.node[15].app.start = "59,56,55,66,74,32,15,27,38,52,37,70,36,86,31,14,14,100,58,71,45,99,21,11,19,73,98,100,48,12,88,14,33,82,28,26,60,44,63,73,26,16,38,17,53,14,48,17,86,96,29,9,100,54,84,5,8,67,4,34,83,76,92,52,12,32,66,58,42,93,97,58,12,60,6,90,39,70,47,81,46,96,73,65,92,14,22,100,72,46,44,63,65,89,36,17,41,38,3,33"
dtnsim.node[15].app.destinationEid = "14,14,14,14,14,14,14,14,14,14,14,14,14,14,14,14,14,14,14,14,14,14,14,14,14,14,14,14,14,14,14,14,14,14,14,14,16,16,16,16,16,16,16,16,16,16,16,16,16,16,16,16,16,16,16,16,16,16,16,16,16,16,16,16,16,16,16,16,16,16,16,16,16,16,16,16,16,16,16,16,16,16,16,16,16,16,16,16,16,16,16,16,16,16,16,16,16,16,16,16"
dtnsim.node[15].app.size = "100,100,100,100,200,200,200,50,500,200,500,50,100,100,200,50,50,200,500,50,50,100,500,200,50,200,500,500,50,200,100,200,200,50,50,100,200,500,50,50,50,100,500,50,200,200,100,200,100,500,500,100,200,100,100,100,50,200,100,50,200,100,100,50,100,200,500,50,200,50,100,500,200,200,200,500,50,100,200,200,500,100,100,500,200,200,500,100,50,200,500,500,100,100,50,500,500,100,500,100"
# Node 16 random conversational traffic
dtnsim.node[16].app.enable = true
dtnsim.node[16].app.bundlesNumber = "5,1,5,5,1,5,3,3,4,3,3,4,3,1,1,3,2,2,5,5,1,2,4,5,1,3,1,1,4,5,1,1,1,2,2,2,5,3,3,5,3,2,4,1,3,3,2,4,5,3,3,3,3,4,4,5,4,2,5,2,1,3,1,2,1,3,4,3,4,3,5,4,5,2,1,1,2,2,2,2,2,5,1,1,3,3,2,3,2,1,3,3,5,1,4,2,1,3,4,5"
dtnsim.node[16].app.start = "68,27,62,17,56,22,95,100,34,100,56,40,84,80,94,50,60,20,10,91,71,53,86,56,100,81,97,16,32,100,47,53,66,74,90,40,44,39,99,70,60,24,16,65,40,82,67,99,75,53,71,14,62,56,31,71,15,75,44,67,67,51,14,38,61,81,48,13,85,63,34,32,46,52,61,29,12,83,58,98,92,68,85,6,24,37,28,49,84,30,31,20,93,96,95,54,37,17,55,19"
dtnsim.node[16].app.destinationEid = "15,15,15,15,15,15,15,15,15,15,15,15,15,15,15,15,15,15,15,15,15,15,15,15,15,15,15,15,15,15,15,15,15,15,15,15,15,15,17,17,17,17,17,17,17,17,17,17,17,17,17,17,17,17,17,17,17,17,17,17,17,17,17,17,17,17,17,17,17,17,17,17,17,17,17,17,17,17,17,17,17,17,17,17,17,17,17,17,17,17,17,17,17,17,17,17,17,17,17,17"
dtnsim.node[16].app.size = "100,50,200,200,200,200,500,200,200,200,50,500,500,100,50,200,50,50,50,50,100,200,200,500,200,200,500,100,100,100,500,500,200,200,500,50,500,100,50,200,200,500,200,50,500,50,100,100,100,200,100,500,100,200,500,50,200,50,200,100,500,100,100,500,100,50,50,500,200,100,100,50,500,100,500,200,200,50,200,100,500,500,200,500,50,50,50,500,200,50,200,100,500,50,200,50,200,100,50,50"
# Node 17 random conversational traffic
dtnsim.node[17].app.enable = true
dtnsim.node[17].app.bundlesNumber = "4,4,1,5,2,2,5,2,1,2,5,2,2,2,5,4,4,1,5,5,3,2,5,3,4,1,1,2,1,5,2,3,1,3,4,2,4,3,5,3,5,3,4,1,1,2,5,1,4,2,5,3,5,5,5,4,4,2,4,1,4,3,3,3,5,1,1,1,5,4,3,2,2,5,5,2,1,2,3,4,4,4,2,3,4,5,1,2,5,4,2,1,2,3,3,5,2,2,4,2"
dtnsim.node[17].app.start = "100,72,27,72,42,92,74,80,79,16,66,57,35,47,77,72,40,55,21,67,42,40,50,56,66,39,92,59,100,93,70,15,32,40,29,98,46,25,65,29,35,94,3,43,81,99,100,99,16,67,94,89,98,42,12,82,16,83,82,59,59,8,49,18,39,91,60,82,37,62,14,5,12,34,41,89,68,6,45,59,44,82,46,91,87,60,90,71,27,38,60,8,49,72,83,90,67,36,5,64"
dtnsim.node[17].app.destinationEid = "16,16,16,16,16,16,16,16,16,16,16,16,16,16,16,16,16,16,16,16,16,16,16,16,16,16,16,16,16,16,16,16,16,16,16,16,16,16,16,16,18,18,18,18,18,18,18,18,18,18,18,18,18,18,18,18,18,18,18,18,18,18,18,18,18,18,18,18,18,18,18,18,18,18,18,18,18,18,18,18,18,18,18,18,18,18,18,18,18,18,18,18,18,18,18,18,18,18,18,18"
dtnsim.node[17].app.size = "100,500,50,100,100,100,50,500,50,50,500,50,200,200,100,50,50,100,50,500,200,500,200,200,200,200,500,50,200,100,50,500,500,500,200,500,50,200,50,200,100,200,100,200,100,200,100,100,100,100,500,500,50,100,500,500,50,200,500,50,50,500,50,500,200,200,50,50,50,200,200,100,50,200,50,100,500,200,100,50,500,100,50,100,100,500,500,100,50,50,50,500,200,200,100,50,50,500,500,200"
# Node 18 random conversational traffic
dtnsim.node[18].app.enable = true
dtnsim.node[18].app.bundlesNumber = "1,4,1,3,1,3,5,3,4,1,3,4,1,4,3,1,3,3,5,1,1,2,5,5,3,4,4,4,2,1,3,3,1,4,2,3,5,1,4,4,3,1,5,3,4,4,4,4,3,1,3,5,2,2,2,1,2,2,3,1,1,3,5,3,2,2,3,5,1,3,5,4,2,3,2,3,3,1,2,5,1,1,3,3,1,1,2,2,2,4,4,3,2,1,3,4,2,4,4,3"
dtnsim.node[18].app.start = "42,98,13,44,91,100,100,100,74,95,43,20,18,86,87,63,62,12,59,41,97,83,40,69,21,9,18,44,66,89,55,73,37,63,75,100,74,45,6,68,73,80,84,21,40,14,37,2,11,14,23,31,84,67,62,47,97,62,62,62,78,61,59,60,51,86,78,53,53,35,43,26,37,40,96,53,15,57,4,75,24,12,13,68,100,65,38,45,68,27,22,8,44,84,52,46,27,5,32,76"
dtnsim.node[18].app.destinationEid = "17,17,17,17,17,17,17,17,17,17,17,17,17,17,17,17,17,17,17,17,17,17,17,17,17,17,17,17,17,17,17,17,17,17,17,17,17,17,17,17,19,19,19,19,19,19,19,19,19,19,19,19,19,19,19,19,19,19,19,19,19,19,19,19,19,19,19,19,19,19,19,19,19,19,19,19,19,19,19,19,19,19,19,19,19,19,19,19,19,19,19,19,19,19,19,19,19,19,19,19"
dtnsim.node[18].app.size = "500,50,200,100,50,200,500,200,100,50,50,100,500,100,50,200,200,50,500,500,500,100,50,200,500,500,100,500,500,50,100,100,100,100,50,200,200,200,500,100,500,200,100,200,500,50,500,100,100,500,500,50,200,100,500,50,200,50,100,200,50,50,500,500,500,500,50,200,500,100,100,100,500,100,200,100,50,50,100,500,200,500,100,200,200,50,50,200,500,50,50,50,50,50,200,200,50,500,50,200"
# Node 19 random conversational traffic
dtnsim.node[19].app.enable = true
dtnsim.node[19].app.bundlesNumber = "1,2,4,1,3,3,2,3,4,3,3,3,1,2,5,3,4,2,3,1,4,5,3,5,5,3,4,4,5,4,4,4,2,3,4,5,2,4,4,3,1,5,1,1,2,3,1,4,4,1,3,4,4,2,4,4,5,5,5,3,5,5,2,2,1,4,4,4,4,4,1,1,2,4,1,1,5,5,5,5,1,4,3,4,1,1,2,4,4,1,1,5,5,4,1,3,1,3,2,5"
dtnsim.node[19].app.start = "86,22,18,40,3,12,27,37,93,75,72,52,100,65,65,67,56,81,38,31,38,62,19,14,79,33,20,18,72,100,73,27,17,52,94,53,34,8,84,23,30,58,36,75,82,37,15,39,28,11,86,62,71,72,29,96,34,8,10,73,55,33,24,100,1,45,27,56,33,46,61,84,41,13,35,90,80,53,36,74,62,59,28,18,52,10,70,11,90,1,20,44,16,16,13,19,70,41,5,77"
dtnsim.node[19].app.destinationEid = "18,18,18,18,18,18,18,18,18,18,18,18,18,18,18,18,18,18,18,18,18,18,18,18,18,18,18,18,18,18,18,18,18,18,18,18,18,18,18,20,20,20,20,20,20,20,20,20,20,20,20,20,20,20,20,20,20,20,20,20,20,20,20,20,20,20,20,20,20,20,20,20,20,20,20,20,20,20,20,20,20,20,20,20,20,20,20,20,20,20,20,20,20,20,20,20,20,20,20,20"
dtnsim.node[19].app.size = "200,500,50,500,50,500,500,100,50,200,500,50,100,100,200,50,50,100,500,200,50,100,200,50,50,50,200,500,50,500,100,50,50,50,500,500,500,50,100,50,50,50,100,50,500,50,200,500,200,200,200,50,500,50,50,500,500,500,200,200,50,200,500,50,200,100,100,500,200,100,100,200,50,100,50,200,500,500,100,50,500,500,500,500,100,200,100,100,100,50,200,100,50,50,100,200,50,100,100,200"
# Node 20 random conversational traffic
dtnsim.node[20].app.enable = true
dtnsim.node[20].app.bundlesNumber = "5,2,5,5,4,5,3,4,4,5,5,1,2,4,1,3,1,5,2,2,4,3,4,3,2,3,1,1,5,4,3,1,4,1,1,1,1,4,3,4,3,5,4,2,5,2,4,3,5,5,5,2,4,2,4,5,5,1,4,1,4,1,3,3,5,2,5,2,3,2,5,1,1,3,5,2,3,3,4,3,2,2,1,5,3,5,3,2,3,2,1,1,5,1,1,3,2,2,4,4"
dtnsim.node[20].app.start = "25,40,67,45,84,85,42,49,95,72,82,31,100,42,11,18,77,43,29,100,5,57,40,68,48,14,97,89,82,61,21,20,95,2,22,51,19,15,80,82,64,54,47,18,47,87,77,85,83,32,92,92,31,70,98,66,61,27,69,78,69,94,59,80,5,78,33,73,75,32,55,26,53,37,42,57,75,13,45,40,74,70,57,63,97,57,17,40,76,31,85,91,84,67,13,24,53,31,50,90"
dtnsim.node[20].app.destinationEid = "19,19,19,19,19,19,19,19,19,19,19,19,19,19,19,19,19,19,19,19,19,19,19,19,19,19,19,19,19,19,19,19,19,19,19,19,19,19,19,19,21,21,21,21,21,21,21,21,21,21,21,21,21,21,21,21,21,21,21,21,21,21,21,21,21,21,21,21,21,21,21,21,21,21,21,21,21,21,21,21,21,21,21,21,21,21,21,21,21,21,21,21,21,21,21,21,21,21,21,21"
dtnsim.node[20].app.size = "200,50,200,50,50,500,100,500,100,50,200,100,200,100,500,500,50,200,500,500,200,50,500,500,50,100,100,100,50,200,500,50,50,100,200,100,50,500,200,200,500,100,50,200,200,500,500,200,100,200,500,100,100,200,100,100,50,200,50,100,50,100,50,100,200,100,100,50,50,100,50,50,200,500,500,200,500,200,200,50,500,50,100,500,500,50,100,500,200,50,50,500,100,500,100,500,200,200,500,50"
# Node 21 random conversational traffic
dtnsim.node[21].app.enable = true
dtnsim.node[21].app.bundlesNumber = "5,5,1,5,2,1,5,3,5,5,1,4,1,5,2,2,3,5,1,3,2,4,1,4,1,3,4,1,1,1,2,3,3,4,4,2,2,1,1,4,1,1,1,3,1,4,3,5,5,2,2,4,3,3,5,3,5,4,5,5,1,2,3,4,5,5,1,4,2,5,2,1,3,3,2,1,1,4,4,3,1,4,4,3,2,1,2,3,1,1,5,4,2,4,2,5,5,2,3,2"
dtnsim.node[21].app.start = "69,62,56,24,97,79,35,100,67,30,81,78,98,61,89,12,82,80,40,62,35,47,59,77,23,49,62,71,98,19,85,97,87,25,34,60,96,8,47,70,58,96,42,78,87,25,26,60,60,69,44,34,59,13,65,66,40,69,16,41,83,70,28,19,45,26,31,90,62,88,88,72,39,100,17,50,71,48,63,75,41,12,98,100,99,59,57,81,42,22,55,13,22,85,12,10,61,65,55,26"
dtnsim.node[21].app.destinationEid = "20,20,20,20,20,20,20,20,20,20,20,20,20,20,20,20,20,20,20,20,20,20,20,20,20,20,20,20,20,20,20,20,20,20,20,20,20,22,22,22,22,22,22,22,22,22,22,22,22,22,22,22,22,22,22,22,22,22,22,22,22,22,22,22,22,22,22,22,22,22,22,22,22,22,22,22,22,22,22,22,22,22,22,22,22,22,22,22,22,22,22,22,22,22,22,22,22,22,22,22"
dtnsim.node[21].app.size = "100,200,50,100,500,100,200,500,50,100,100,500,200,500,500,200,50,50,100,50,100,200,100,200,200,50,50,50,50,50,100,500,200,500,100,500,500,50,500,50,100,100,100,100,100,200,200,200,200,500,100,500,200,200,500,100,200,50,200,100,100,500,50,500,100,500,100,50,500,200,100,50,50,50,200,100,50,100,200,500,200,100,200,200,200,200,50,100,200,100,100,50,100,500,50,200,500,50,100,500"
# Node 22 random conversational traffic
dtnsim.node[22].app.enable = true
dtnsim.node[22].app.bundlesNumber = "3,5,5,1,2,2,1,2,4,4,1,3,2,5,2,5,3,5,5,5,2,4,5,5,4,4,2,5,2,2,2,1,2,2,5,1,4,2,2,2,4,4,3,4,4,3,5,4,2,1,5,3,4,1,1,2,4,3,4,5,3,2,3,1,5,5,1,2,2,4,2,4,4,3,2,5,3,3,1,2,5,5,4,2,5,3,1,1,4,3,2,1,5,5,5,3,3,3,1,2"
dtnsim.node[22].app.start = "50,72,61,97,47,83,95,69,69,73,39,61,16,75,50,74,47,29,97,63,96,92,100,24,59,50,22,99,91,30,27,86,22,14,69,72,65,95,56,40,40,45,70,92,87,65,99,97,71,21,77,38,44,95,77,85,27,65,61,51,54,49,46,51,66,58,53,17,24,3,93,32,95,17,26,81,70,92,73,73,21,43,40,23,62,17,94,50,55,36,1,3,75,4,78,74,47,49,86,67"
dtnsim.node[22].app.destinationEid = "21,21,21,21,21,21,21,21,21,21,21,21,21,21,21,21,21,21,21,21,21,21,21,21,21,21,21,21,21,21,21,21,21,21,21,21,21,23,23,23,23,23,23,23,23,23,23,23,23,23,23,23,23,23,23,23,23,23,23,23,23,23,23,23,23,23,23,23,23,23,23,23,23,23,23,23,23,23,23,23,23,23,23,23,23,23,23,23,23,23,23,23,23,23,23,23,23,23,23,23"