[General]
network = src.dtnsim										
repeat = 1
allow-object-stealing-on-deletion = true

# Simulation end time
sim-time-limit = 84600s

# Nodes quantity (identifiers (EiDs) matches their index, EiD=0 is ignored)			
dtnsim.nodesNumber = 360
dtnsim.node[*].icon = "satellite"

# Nodes's failure rates
dtnsim.node[*].fault.enable = true
dtnsim.node[*].fault.meanTTF = 190s
dtnsim.node[*].fault.meanTTR = 10s

# Mobility
dtnsim.node[*].hasMobility = true
dtnsim.node[*].norad.satIndex = parentIndex()
dtnsim.node[*].norad.satName = "sat"
**.updateInterval = 20s
**.numOfSats = 360
**.satPerPlane = 18
**.altitude = 540
**.planes = 20
**.phaseOffset = 11

dtnsim.node[*].dtn.routing = "antop"
dtnsim.node[*].dtn.printRoutingDebug = true

# --- Random Traffic Configuration ---
# Node 1 random conversational traffic
dtnsim.node[1].app.enable = true
dtnsim.node[1].app.bundlesNumber = "3,1,4,2,4,3,1,1,2,5,2,5,1,3,5,1,2,2,5,2,3,3,4,3,3,1,5,2,2,5,5,4,3,2,2,1,4,1,4,3,3,3,1,1,2,1,4,4,3,5,3,1,1,3,2,2,5,1,3,1,1,4,4,4,1,5,5,2,2,4,5,1,5,5,3,4,4,3,2,1,4,1,4,2,3,3,1,1,1,1,1,5,5,2,1,1,4,4,1,4"
dtnsim.node[1].app.start = "58,7,88,5,61,71,89,6,96,4,54,23,30,96,95,84,95,83,92,72,3,65,100,71,67,92,59,2,43,14,11,2,38,39,77,48,91,43,95,66,64,56,61,66,14,3,98,53,84,82,77,11,88,16,92,22,73,40,96,58,93,20,91,34,68,27,48,32,62,63,54,23,49,39,28,1,15,31,99,81,36,27,95,98,23,79,91,68,84,36,27,89,92,39,26,52,88,84,41,49"
dtnsim.node[1].app.destinationEid = "2,2,2,2,2,2,2,2,2,2,2,2,2,2,2,2,2,2,2,2,2,2,2,2,2,2,2,2,2,2,2,2,2,2,2,2,2,2,2,2,2,2,2,2,2,2,2,2,2,2,2,2,2,2,2,2,2,2,2,2,2,2,2,2,2,2,2,2,2,2,2,2,2,2,2,2,2,2,2,2,2,2,2,2,2,2,2,2,2,2,2,2,2,2,2,2,2,2,2,2"
dtnsim.node[1].app.size = "100,500,500,200,100,100,100,500,500,200,200,500,500,50,50,200,100,200,50,200,200,500,200,500,100,100,100,500,100,100,50,500,50,50,200,500,100,100,200,200,50,200,50,50,100,100,50,100,100,50,500,100,500,500,200,500,100,500,200,50,100,50,500,200,500,200,50,100,200,100,50,500,200,100,100,50,500,200,500,200,100,200,500,100,500,500,50,500,50,100,200,50,50,50,500,50,200,200,200,500"
# Node 2 random conversational traffic
dtnsim.node[2].app.enable = true
dtnsim.node[2].app.bundlesNumber = "5,4,2,2,5,3,4,3,5,3,4,3,3,3,1,4,5,1,4,2,3,3,4,3,1,4,4,4,4,4,1,1,3,2,5,2,4,4,1,2,4,3,3,5,2,1,5,3,3,4,4,4,4,3,4,3,4,2,3,3,4,5,4,1,5,1,4,1,1,2,1,1,4,5,2,2,4,3,1,1,4,4,2,3,4,1,4,3,1,3,4,5,1,3,4,1,1,5,4,2"
dtnsim.node[2].app.start = "63,14,94,10,63,81,98,8,98,6,56,30,36,100,88,95,8,100,72,72,49,21,39,42,56,93,51,72,70,59,71,67,13,89,84,85,20,99,29,75,96,27,93,35,36,63,59,29,11,16,41,100,100,100,89,92,71,93,37,31,94,98,48,28,60,90,57,36,63,22,83,22,48,76,64,46,32,19,53,80,76,92,44,83,54,88,81,60,87,58,11,13,50,64,88,53,27,24,62,24"
dtnsim.node[2].app.destinationEid = "1,1,1,1,1,1,1,1,1,1,1,1,1,1,1,1,1,1,1,1,1,1,1,1,1,1,1,1,1,1,1,1,1,1,1,1,1,1,1,1,1,1,1,1,1,1,1,1,1,1,1,1,1,1,1,1,1,1,1,1,1,1,1,1,1,1,1,3,3,3,3,3,3,3,3,3,3,3,3,3,3,3,3,3,3,3,3,3,3,3,3,3,3,3,3,3,3,3,3,3"
dtnsim.node[2].app.size = "100,200,200,200,100,500,500,500,500,100,200,200,50,200,100,200,500,50,50,200,200,50,50,50,500,100,100,500,500,50,200,200,200,200,500,200,50,100,500,100,100,100,500,50,50,50,50,50,200,50,50,200,100,200,500,200,50,500,500,200,100,200,200,50,500,100,50,200,200,50,100,200,50,500,50,50,200,500,500,50,200,200,100,500,500,200,500,100,100,100,500,100,50,200,500,200,500,50,100,200"
# Node 3 random conversational traffic
dtnsim.node[3].app.enable = true
dtnsim.node[3].app.bundlesNumber = "3,1,2,1,4,5,4,2,1,4,3,3,4,4,4,1,2,3,1,2,5,4,1,1,3,1,3,3,5,5,1,4,3,3,4,4,5,1,2,1,5,3,5,2,2,3,4,1,5,3,1,1,5,4,2,4,2,3,2,5,5,3,3,4,1,2,3,1,5,5,4,4,4,3,1,4,4,4,2,5,2,2,3,3,5,3,4,4,4,3,4,4,2,1,4,4,4,4,2,3"
dtnsim.node[3].app.start = "64,27,30,51,78,74,53,39,22,77,99,45,90,58,98,63,93,62,15,66,98,54,30,66,98,47,73,4,20,20,91,36,72,31,18,38,87,62,95,27,77,56,37,61,41,12,97,10,4,47,64,56,51,27,21,33,91,52,77,17,78,81,50,3,74,83,85,10,82,14,71,78,100,24,92,77,75,16,10,6,80,59,96,8,2,18,97,13,98,53,29,60,47,83,36,15,76,64,86,48"
dtnsim.node[3].app.destinationEid = "2,2,2,2,2,2,2,2,2,2,2,2,2,2,2,2,2,2,2,2,2,2,2,2,4,4,4,4,4,4,4,4,4,4,4,4,4,4,4,4,4,4,4,4,4,4,4,4,4,4,4,4,4,4,4,4,4,4,4,4,4,4,4,4,4,4,4,4,4,4,4,4,4,4,4,4,4,4,4,4,4,4,4,4,4,4,4,4,4,4,4,4,4,4,4,4,4,4,4,4"
dtnsim.node[3].app.size = "100,200,500,50,500,200,500,100,200,100,500,200,200,100,100,200,100,500,200,100,200,500,500,100,100,500,200,50,200,500,50,500,50,50,50,100,50,50,200,500,200,200,100,500,500,100,200,500,50,100,50,50,500,50,200,200,100,50,500,100,200,100,500,50,100,500,200,50,100,200,100,500,50,50,50,200,500,500,100,50,50,500,100,500,200,200,100,200,500,100,100,500,50,200,50,100,50,200,200,200"
# Node 4 random conversational traffic
dtnsim.node[4].app.enable = true
dtnsim.node[4].app.bundlesNumber = "2,2,3,3,3,1,1,3,3,4,4,5,3,3,1,5,2,2,5,3,2,3,3,5,3,4,5,1,5,1,5,1,4,1,1,2,5,2,4,3,4,5,2,5,5,2,5,1,3,1,2,3,4,3,2,3,2,2,2,5,4,4,1,5,5,1,5,3,1,5,3,2,4,4,3,1,5,3,3,2,1,2,4,4,5,2,4,4,2,3,3,3,2,2,4,2,4,1,4,1"
dtnsim.node[4].app.start = "50,82,6,23,24,43,40,46,94,97,82,69,42,15,14,51,72,27,36,92,57,82,88,85,56,8,90,88,90,22,79,33,85,79,15,14,85,98,9,8,21,98,58,36,66,57,37,22,84,72,50,40,68,80,35,31,95,74,19,19,44,29,42,73,9,11,70,80,25,32,49,90,22,16,66,36,8,8,86,48,60,42,3,66,87,94,93,50,96,8,44,48,5,82,79,21,84,43,57,86"
dtnsim.node[4].app.destinationEid = "3,3,3,3,3,3,3,3,3,3,3,3,3,3,3,3,3,3,3,3,3,3,3,3,3,3,3,3,3,3,3,3,3,3,3,3,3,3,3,3,3,3,3,3,3,3,3,3,3,3,3,5,5,5,5,5,5,5,5,5,5,5,5,5,5,5,5,5,5,5,5,5,5,5,5,5,5,5,5,5,5,5,5,5,5,5,5,5,5,5,5,5,5,5,5,5,5,5,5,5"
dtnsim.node[4].app.size = "100,100,200,100,500,100,100,100,200,50,50,500,100,50,50,100,50,200,200,50,500,500,100,500,100,500,50,500,50,50,100,200,200,100,100,100,50,100,100,100,50,100,50,100,100,100,200,50,100,200,50,500,100,100,200,100,500,100,50,100,500,100,200,200,100,200,50,200,500,50,100,500,200,50,200,200,500,200,50,100,200,200,200,100,500,200,500,500,50,500,50,50,50,50,100,200,50,200,50,50"
# Node 5 random conversational traffic
dtnsim.node[5].app.enable = true
dtnsim.node[5].app.bundlesNumber = "2,4,5,4,1,5,3,1,5,1,2,4,1,3,1,2,5,5,5,2,4,3,1,4,3,1,3,3,3,5,2,5,4,3,4,4,2,5,3,4,1,4,5,3,4,3,1,3,1,2,1,3,1,4,4,3,2,4,4,4,5,5,4,5,2,2,5,5,3,1,1,3,1,4,3,4,3,5,1,3,1,5,3,2,2,4,2,2,5,2,3,2,3,3,2,1,2,3,4,5"
dtnsim.node[5].app.start = "89,36,96,75,28,35,77,19,82,27,37,57,95,21,44,12,9,50,62,52,100,100,55,98,54,13,83,91,47,19,27,4,28,97,24,88,48,18,14,54,95,62,12,75,35,93,36,92,48,44,35,98,73,45,22,9,41,77,6,11,85,2,96,64,67,53,2,74,45,19,99,41,27,33,95,51,89,23,1,87,21,52,20,13,11,34,28,40,29,100,2,49,16,71,7,16,24,45,54,90"
dtnsim.node[5].app.destinationEid = "4,4,4,4,4,4,4,4,4,4,4,4,4,4,4,4,4,4,4,4,4,4,4,4,4,4,4,4,4,6,6,6,6,6,6,6,6,6,6,6,6,6,6,6,6,6,6,6,6,6,6,6,6,6,6,6,6,6,6,6,6,6,6,6,6,6,6,6,6,6,6,6,6,6,6,6,6,6,6,6,6,6,6,6,6,6,6,6,6,6,6,6,6,6,6,6,6,6,6,6"
dtnsim.node[5].app.size = "200,50,100,100,500,200,500,200,500,500,50,200,200,200,50,500,500,200,200,200,50,500,500,50,500,500,50,200,100,200,500,200,100,500,50,500,50,200,200,200,100,200,50,200,200,500,100,200,100,200,500,200,50,500,200,200,500,500,500,50,100,500,50,200,50,500,200,100,100,100,100,100,200,100,100,50,100,50,100,500,500,500,50,200,50,500,500,100,200,200,100,50,500,500,50,50,100,50,50,200"
# Node 6 random conversational traffic
dtnsim.node[6].app.enable = true
dtnsim.node[6].app.bundlesNumber = "4,4,2,3,3,3,3,2,5,2,2,2,3,3,5,4,5,4,1,1,3,1,5,1,1,4,1,5,2,5,3,2,3,1,3,1,1,2,3,2,5,3,2,1,1,4,5,2,2,4,3,5,4,1,2,1,1,4,3,3,4,5,3,4,2,4,2,3,4,2,1,2,3,4,5,4,2,5,1,1,5,3,1,3,4,1,1,3,1,4,1,2,1,5,1,4,1,4,1,5"
dtnsim.node[6].app.start = "24,9,29,100,94,53,20,64,63,80,38,100,97,57,46,37,99,83,52,27,12,51,78,21,7,56,5,84,100,48,28,27,56,30,19,17,100,5,50,22,21,32,47,64,95,40,83,36,29,73,13,86,26,18,28,88,42,62,67,16,47,56,28,19,61,71,59,6,15,11,1,43,71,73,84,46,100,97,10,14,51,93,85,13,70,87,61,40,22,28,52,68,81,21,91,30,23,79,56,83"
dtnsim.node[6].app.destinationEid = "5,5,5,5,5,5,5,5,5,5,5,5,5,5,5,5,5,5,5,5,5,5,5,5,5,5,5,5,5,5,5,5,5,5,5,5,5,5,5,5,5,5,5,5,5,7,7,7,7,7,7,7,7,7,7,7,7,7,7,7,7,7,7,7,7,7,7,7,7,7,7,7,7,7,7,7,7,7,7,7,7,7,7,7,7,7,7,7,7,7,7,7,7,7,7,7,7,7,7,7"
dtnsim.node[6].app.size = "50,50,200,200,50,500,50,200,200,200,100,500,200,200,50,200,200,500,50,200,200,200,500,500,500,50,500,200,500,500,500,500,100,200,50,50,500,200,200,50,200,50,500,100,500,500,500,200,200,50,50,100,200,500,200,500,50,100,500,100,200,100,500,50,500,200,200,200,200,200,50,200,200,100,500,200,500,500,50,50,200,500,100,200,50,100,200,500,500,100,50,50,200,200,500,500,100,500,500,100"
# Node 7 random conversational traffic
dtnsim.node[7].app.enable = true
dtnsim.node[7].app.bundlesNumber = "2,3,4,4,4,3,3,3,2,5,3,5,3,2,1,2,5,4,3,3,4,5,4,1,2,1,5,3,4,3,3,3,5,2,5,4,4,1,3,5,1,3,1,5,3,3,4,5,4,1,4,2,2,5,2,4,2,3,2,4,1,1,3,5,5,2,2,5,3,3,1,2,1,4,5,3,5,1,3,4,5,1,5,2,2,3,5,5,3,2,3,3,2,1,2,3,5,3,2,4"
dtnsim.node[7].app.start = "41,86,43,33,89,97,47,20,52,58,38,68,63,15,17,10,46,79,75,94,50,100,100,61,20,74,97,32,54,72,35,88,58,86,43,71,1,10,9,12,22,88,90,90,3,57,75,42,7,42,67,52,4,74,4,48,12,95,89,9,59,51,20,43,99,46,83,49,44,86,12,76,51,65,54,3,8,48,35,75,48,6,75,39,97,29,58,52,37,33,37,30,94,69,64,38,12,8,44,55"
dtnsim.node[7].app.destinationEid = "6,6,6,6,6,6,6,6,6,6,6,6,6,6,6,6,6,6,6,6,6,6,6,6,6,6,6,6,6,6,6,6,6,6,8,8,8,8,8,8,8,8,8,8,8,8,8,8,8,8,8,8,8,8,8,8,8,8,8,8,8,8,8,8,8,8,8,8,8,8,8,8,8,8,8,8,8,8,8,8,8,8,8,8,8,8,8,8,8,8,8,8,8,8,8,8,8,8,8,8"
dtnsim.node[7].app.size = "50,50,100,50,100,500,50,500,200,50,500,200,50,100,100,100,100,50,500,50,200,100,50,50,200,100,50,200,100,200,500,500,100,50,50,100,500,500,200,50,100,100,200,200,200,200,50,500,200,100,50,500,200,500,50,200,100,50,50,500,100,500,100,500,500,100,50,200,100,500,100,100,500,50,500,100,50,100,50,200,100,200,200,500,50,100,50,200,500,50,100,500,100,100,500,200,100,500,100,200"
# Node 8 random conversational traffic
dtnsim.node[8].app.enable = true
dtnsim.node[8].app.bundlesNumber = "3,5,5,1,4,4,3,4,5,4,2,3,1,2,5,5,2,5,5,4,3,1,5,5,1,1,5,5,3,1,4,4,2,5,5,3,1,1,4,3,4,3,1,2,3,3,4,1,4,1,5,5,1,3,3,3,2,3,5,4,3,4,2,5,1,1,5,4,1,1,1,4,5,5,4,3,1,5,5,3,3,5,2,5,4,2,2,3,4,3,1,1,2,2,5,1,4,3,4,3"
dtnsim.node[8].app.start = "5,11,18,31,97,97,95,11,66,48,9,76,62,12,76,9,14,100,91,26,53,100,86,49,96,82,55,75,59,5,16,36,81,55,13,44,38,65,61,47,42,43,98,72,66,18,17,52,62,49,60,45,78,79,46,79,59,56,80,89,89,13,30,59,69,37,44,57,6,80,66,37,79,42,54,62,89,28,34,27,20,21,39,31,12,23,50,12,67,14,25,46,21,16,29,39,94,54,50,53"
dtnsim.node[8].app.destinationEid = "7,7,7,7,7,7,7,7,7,7,7,7,7,7,7,7,7,7,7,7,7,7,7,7,7,7,7,7,7,7,7,7,7,7,7,7,7,7,7,7,7,7,7,7,7,7,7,7,9,9,9,9,9,9,9,9,9,9,9,9,9,9,9,9,9,9,9,9,9,9,9,9,9,9,9,9,9,9,9,9,9,9,9,9,9,9,9,9,9,9,9,9,9,9,9,9,9,9,9,9"
dtnsim.node[8].app.size = "50,200,50,50,500,500,50,50,200,100,500,200,50,50,500,500,50,100,500,100,100,200,100,500,200,50,200,500,50,100,50,200,50,50,50,500,200,50,500,200,500,100,200,50,500,50,100,500,500,50,200,500,50,500,50,500,50,200,500,50,500,50,500,100,200,100,50,100,50,50,200,200,100,100,50,200,50,500,500,500,500,200,200,500,200,50,500,100,50,500,100,500,200,500,50,200,50,500,50,200"
# Node 9 random conversational traffic
dtnsim.node[9].app.enable = true
dtnsim.node[9].app.bundlesNumber = "4,3,1,5,2,3,5,4,1,2,1,5,5,4,5,3,5,5,1,1,5,5,3,5,1,3,2,1,4,2,5,5,5,2,5,3,2,4,1,3,4,2,1,5,2,3,4,4,1,1,4,2,1,3,5,4,4,5,5,5,5,4,2,2,2,5,4,4,5,3,2,1,5,4,5,3,5,1,4,5,4,1,3,2,1,1,2,5,4,2,1,4,3,2,2,4,2,4,1,2"
dtnsim.node[9].app.start = "69,50,61,54,79,60,87,97,97,17,39,45,47,83,71,46,70,97,31,22,31,32,22,24,59,73,16,26,54,36,100,59,88,80,23,39,84,88,40,37,57,95,15,42,36,82,61,1,56,70,37,85,55,9,83,79,33,40,75,56,99,3,58,96,69,6,11,9,46,1,95,27,25,69,22,45,27,36,77,86,7,46,38,100,80,100,6,72,50,60,32,26,88,62,92,62,38,97,15,79"
dtnsim.node[9].app.destinationEid = "8,8,8,8,8,8,8,8,8,8,8,8,8,8,8,8,8,8,8,8,8,8,8,8,8,8,8,8,8,8,8,8,10,10,10,10,10,10,10,10,10,10,10,10,10,10,10,10,10,10,10,10,10,10,10,10,10,10,10,10,10,10,10,10,10,10,10,10,10,10,10,10,10,10,10,10,10,10,10,10,10,10,10,10,10,10,10,10,10,10,10,10,10,10,10,10,10,10,10,10"
dtnsim.node[9].app.size = "500,100,200,50,100,500,500,50,50,50,500,500,200,500,500,200,200,100,200,500,50,100,500,100,200,500,100,50,500,200,50,50,200,50,100,50,200,50,100,50,100,200,200,100,100,200,500,50,500,50,50,200,500,100,100,100,50,200,50,500,100,50,50,100,100,50,200,100,200,500,100,500,50,100,50,50,100,100,50,100,100,50,100,200,50,500,500,100,100,200,100,500,50,500,500,100,200,50,200,500"
# Node 10 random conversational traffic
dtnsim.node[10].app.enable = true
dtnsim.node[10].app.bundlesNumber = "4,4,2,3,3,4,3,2,4,1,5,1,5,5,4,2,4,1,2,2,3,1,3,3,5,3,4,5,2,2,5,3,2,5,2,5,1,3,4,3,5,2,2,3,1,4,3,4,2,2,2,4,5,1,3,5,3,4,5,2,3,5,2,2,4,1,2,2,2,3,2,4,4,4,4,2,2,5,3,4,3,4,4,3,1,3,1,3,3,4,5,4,4,4,3,4,3,5,4,4"
dtnsim.node[10].app.start = "32,85,67,99,16,52,40,66,8,73,39,89,64,19,47,66,100,8,100,8,18,55,98,32,23,44,83,91,11,51,43,100,100,12,80,51,69,39,35,93,63,68,99,81,40,90,63,36,29,84,22,63,28,38,69,58,43,36,85,49,9,42,3,56,1,32,98,68,24,23,78,14,10,96,48,90,22,58,65,33,43,6,74,49,51,80,65,54,29,59,50,82,52,64,8,84,66,95,32,91"
dtnsim.node[10].app.destinationEid = "9,9,9,9,9,9,9,9,9,9,9,9,9,9,9,9,9,9,9,9,9,9,9,9,9,9,9,9,9,9,9,9,9,9,9,9,9,9,9,9,9,9,9,9,11,11,11,11,11,11,11,11,11,11,11,11,11,11,11,11,11,11,11,11,11,11,11,11,11,11,11,11,11,11,11,11,11,11,11,11,11,11,11,11,11,11,11,11,11,11,11,11,11,11,11,11,11,11,11,11"
dtnsim.node[10].app.size = "100,100,50,200,50,500,100,50,100,100,500,200,50,200,500,100,100,200,200,500,200,200,100,50,50,500,50,200,500,500,200,100,100,100,200,50,50,200,500,50,500,500,500,200,50,200,500,200,50,500,100,500,100,100,50,50,200,50,200,50,100,200,50,200,200,500,200,50,100,50,200,50,500,200,500,200,100,100,50,200,100,200,100,100,50,100,50,50,100,500,100,50,50,500,50,500,500,50,50,200"
# Node 11 random conversational traffic
dtnsim.node[11].app.enable = true
dtnsim.node[11].app.bundlesNumber = "2,2,2,2,1,2,3,3,3,3,2,1,2,5,3,4,1,4,1,3,2,1,3,5,4,4,4,3,3,1,1,4,4,4,1,1,3,4,1,4,5,2,3,1,1,4,2,4,3,5,1,5,3,1,2,3,5,4,1,2,3,4,2,1,1,5,5,1,3,3,5,4,3,1,2,3,2,3,1,3,4,5,3,1,4,4,5,2,1,1,4,1,3,1,2,1,3,3,4,5"
dtnsim.node[11].app.start = "43,64,36,89,43,73,68,51,38,52,17,43,11,58,6,38,99,69,81,19,99,56,27,59,66,39,47,50,57,84,70,59,53,72,85,98,94,36,15,73,43,14,65,78,85,85,2,53,70,93,33,97,86,1,57,65,33,19,29,24,35,10,7,63,24,34,9,41,72,82,60,60,73,75,55,75,53,10,40,39,28,87,82,9,87,9,82,20,32,69,44,45,20,30,71,86,63,58,26,27"
dtnsim.node[11].app.destinationEid = "10,10,10,10,10,10,10,10,10,10,10,10,10,10,10,10,10,10,10,10,10,10,10,10,10,10,10,10,10,10,10,10,10,10,10,10,10,12,12,12,12,12,12,12,12,12,12,12,12,12,12,12,12,12,12,12,12,12,12,12,12,12,12,12,12,12,12,12,12,12,12,12,12,12,12,12,12,12,12,12,12,12,12,12,12,12,12,12,12,12,12,12,12,12,12,12,12,12,12,12"
dtnsim.node[11].app.size = "200,500,500,50,200,500,500,200,500,100,200,50,200,50,50,100,200,50,50,200,50,50,500,100,500,200,500,100,100,100,100,50,50,100,500,500,50,100,500,200,200,500,100,50,500,50,500,200,50,100,50,50,200,50,100,500,100,200,100,100,100,500,100,100,100,100,200,500,200,100,500,200,200,500,100,200,100,50,500,200,100,50,50,100,50,100,500,500,200,500,200,200,100,50,100,200,50,100,500,200"
# Node 12 random conversational traffic
dtnsim.node[12].app.enable = true
dtnsim.node[12].app.bundlesNumber = "2,1,4,2,3,5,5,3,3,3,2,4,2,1,2,5,5,4,1,2,2,3,1,3,5,5,4,3,1,1,1,5,3,1,2,3,2,2,1,3,5,1,3,2,4,3,1,4,1,3,4,2,3,1,5,3,5,2,3,1,5,3,1,1,4,1,2,5,4,1,4,2,2,3,5,5,4,3,4,1,3,5,4,1,3,2,4,1,4,2,5,5,3,4,2,2,1,5,3,3"
dtnsim.node[12].app.start = "37,19,19,71,83,87,7,58,77,96,96,10,65,66,25,26,45,32,36,12,86,66,77,80,61,60,50,86,13,91,15,91,27,74,51,22,81,91,64,61,30,97,63,67,20,15,82,18,80,49,27,28,13,20,52,32,100,58,86,59,93,49,83,58,67,51,22,26,43,21,3,29,18,28,25,80,60,71,66,16,8,4,41,92,67,81,33,19,71,70,63,23,67,31,77,40,13,65,44,13"
dtnsim.node[12].app.destinationEid = "11,11,11,11,11,11,11,11,11,11,11,11,11,11,11,11,11,11,11,11,11,11,11,11,11,11,11,11,11,11,11,11,11,11,11,11,11,11,11,11,11,13,13,13,13,13,13,13,13,13,13,13,13,13,13,13,13,13,13,13,13,13,13,13,13,13,13,13,13,13,13,13,13,13,13,13,13,13,13,13,13,13,13,13,13,13,13,13,13,13,13,13,13,13,13,13,13,13,13,13"
dtnsim.node[12].app.size = "100,100,50,100,50,500,50,100,200,100,200,200,200,50,500,50,200,50,50,500,200,200,200,50,50,200,200,50,500,200,200,500,100,50,200,50,100,100,500,500,100,500,200,200,500,200,50,100,50,100,200,200,200,100,500,200,200,200,50,100,200,500,100,50,50,100,100,100,500,500,500,100,500,100,200,100,50,500,200,200,50,100,500,50,500,200,500,100,500,200,500,100,50,100,50,50,50,50,500,500"
# Node 13 random conversational traffic
dtnsim.node[13].app.enable = true
dtnsim.node[13].app.bundlesNumber = "1,1,5,4,4,5,5,3,5,4,4,3,4,4,2,2,2,5,1,3,5,5,4,2,3,3,4,5,2,1,5,3,1,3,2,2,4,3,3,2,5,2,5,1,1,3,3,5,5,3,1,3,4,2,3,3,4,5,3,4,5,4,5,3,5,5,1,3,1,2,1,4,3,5,5,2,2,3,2,5,2,2,3,2,2,3,3,4,1,5,1,5,2,3,1,4,3,3,1,5"
dtnsim.node[13].app.start = "99,75,25,83,20,83,36,34,22,59,65,73,61,24,27,46,24,37,24,37,26,72,76,14,9,51,89,20,73,30,77,41,16,68,48,56,94,86,88,20,63,42,82,48,85,54,24,7,46,5,49,13,66,29,34,48,31,49,77,96,91,73,3,81,30,59,27,14,32,75,22,36,24,19,66,4,70,74,33,89,64,96,70,3,45,41,21,61,46,94,80,16,49,43,67,53,75,59,46,60"
dtnsim.node[13].app.destinationEid = "12,12,12,12,12,12,12,12,12,12,12,12,12,12,12,12,12,12,12,12,12,12,12,12,12,12,12,12,12,12,12,12,12,12,12,14,14,14,14,14,14,14,14,14,14,14,14,14,14,14,14,14,14,14,14,14,14,14,14,14,14,14,14,14,14,14,14,14,14,14,14,14,14,14,14,14,14,14,14,14,14,14,14,14,14,14,14,14,14,14,14,14,14,14,14,14,14,14,14,14"
dtnsim.node[13].app.size = "50,50,100,100,50,500,100,500,100,100,500,50,500,100,100,500,50,200,100,100,200,200,100,200,50,500,500,200,200,50,500,500,50,50,500,50,100,100,500,100,50,500,100,50,500,500,100,50,100,50,50,200,500,200,500,100,50,50,50,500,50,50,50,50,50,100,500,500,200,200,50,500,100,200,100,100,200,100,100,100,100,100,500,200,100,50,50,50,50,500,50,500,50,200,100,100,500,100,50,100"
# Node 14 random conversational traffic
dtnsim.node[14].app.enable = true
dtnsim.node[14].app.bundlesNumber = "2,1,4,3,1,3,3,2,1,1,2,3,4,4,4,3,3,5,3,1,3,1,5,5,3,3,2,1,1,3,1,2,3,2,1,3,1,5,4,2,5,4,2,4,2,4,1,2,5,5,3,4,3,4,4,2,1,2,5,2,3,3,2,3,1,5,1,2,5,4,1,4,2,1,3,3,5,1,2,3,3,5,4,4,4,2,1,1,4,4,4,4,1,3,1,5,4,3,1,2"
dtnsim.node[14].app.start = "60,95,93,96,27,43,85,51,86,61,33,9,41,53,87,97,95,4,34,69,34,22,76,45,73,14,74,35,74,98,13,52,65,48,97,86,58,45,59,79,62,46,30,99,22,1,74,11,91,65,94,36,89,86,79,62,34,77,27,42,99,8,27,20,58,86,100,25,98,25,95,92,79,91,12,92,78,63,76,76,58,24,57,64,87,89,5,36,83,21,41,37,84,85,100,96,60,50,57,85"
dtnsim.node[14].app.destinationEid = "13,13,13,13,13,13,13,13,13,13,13,13,13,13,13,13,13,13,13,13,13,13,13,13,13,13,13,13,13,13,13,13,13,13,13,13,13,13,13,13,13,15,15,15,15,15,15,15,15,15,15,15,15,15,15,15,15,15,15,15,15,15,15,15,15,15,15,15,15,15,15,15,15,15,15,15,15,15,15,15,15,15,15,15,15,15,15,15,15,15,15,15,15,15,15,15,15,15,15,15"
dtnsim.node[14].app.size = "100,100,50,50,100,100,500,200,500,500,500,100,50,50,500,500,50,500,100,500,200,500,50,500,50,500,100,50,100,500,50,100,50,200,200,200,500,100,50,500,100,500,500,100,500,200,100,100,100,200,100,200,500,100,200,500,100,200,100,200,200,200,200,50,50,500,500,50,500,50,50,500,50,50,50,50,200,500,50,500,200,50,200,50,500,200,200,200,100,50,100,500,100,50,100,200,100,50,100,500"
# Node 15 random conversational traffic
dtnsim.node[15].app.enable = true
dtnsim.node[15].app.bundlesNumber = "4,1,3,4,2,4,4,3,4,4,1,2,4,3,2,4,1,1,2,3,1,4,5,2,4,5,1,1,4,5,4,2,3,4,3,4,1,5,4,1,2,2,4,1,2,4,5,5,4,3,5,1,2,1,2,2,5,1,1,5,2,4,4,2,2,3,2,5,5,5,2,2,5,3,3,5,1,4,2,4,2,2,3,2,2,1,4,4,4,4,4,4,3,5,4,1,2,5,2,3"
dtnsim.node[15].app.start = "47,36,100,25,8,81,69,42,93,42,47,30,95,100,99,33,97,95,84,96,65,84,63,65,92,98,9,42,88,23,50,42,86,100,61,61,78,95,52,83,87,7,60,21,83,11,63,15,35,22,21,27,25,17,50,29,90,28,59,69,60,50,29,21,27,86,61,18,73,55,26,50,21,2,70,61,25,97,32,29,13,58,17,36,31,34,6,91,46,60,50,47,79,22,60,13,35,17,26,74"
dtnsim.node[15].app.destinationEid = "14,14,14,14,14,14,14,14,14,14,14,14,14,14,14,14,14,14,14,14,14,14,14,14,14,14,14,14,14,14,14,14,14,14,14,14,16,16,16,16,16,16,16,16,16,16,16,16,16,16,16,16,16,16,16,16,16,16,16,16,16,16,16,16,16,16,16,16,16,16,16,16,16,16,16,16,16,16,16,16,16,16,16,16,16,16,16,16,16,16,16,16,16,16,16,16,16,16,16,16"
dtnsim.node[15].app.size = "100,50,50,100,100,500,50,200,200,500,500,50,100,200,50,50,500,100,500,200,200,50,100,50,100,50,200,100,50,200,50,200,50,100,500,500,50,500,200,100,200,200,200,50,50,50,50,200,500,200,50,200,500,500,500,50,200,500,50,50,100,50,100,50,200,100,50,50,500,200,100,500,200,50,500,50,500,200,100,200,200,200,50,200,500,200,50,500,50,200,200,500,200,500,200,100,50,100,500,100"
# Node 16 random conversational traffic
dtnsim.node[16].app.enable = true
dtnsim.node[16].app.bundlesNumber = "2,5,1,1,1,1,2,4,3,5,1,3,2,1,5,1,2,4,4,1,2,5,3,3,3,3,2,1,2,4,2,3,4,3,2,3,1,4,3,2,2,5,1,2,1,2,5,4,5,1,3,2,4,5,4,1,5,3,1,3,5,3,3,2,5,5,4,2,1,1,1,1,4,5,3,5,3,3,5,2,5,2,4,3,1,1,4,5,2,2,4,5,2,2,4,3,2,3,3,1"
dtnsim.node[16].app.start = "79,97,62,68,88,19,18,32,23,54,31,61,77,51,36,29,66,81,64,35,9,66,100,23,40,35,10,94,48,66,53,87,24,69,19,33,83,78,75,56,14,93,2,69,55,6,9,12,49,39,11,42,80,18,28,82,41,66,31,51,22,88,64,21,16,15,78,47,78,26,54,3,15,67,46,14,14,82,4,59,64,100,100,4,3,34,25,13,5,92,9,52,19,43,61,13,45,10,90,43"
dtnsim.node[16].app.destinationEid = "15,15,15,15,15,15,15,15,15,15,15,15,15,15,15,15,15,15,15,15,15,15,15,15,15,15,15,15,15,15,15,15,15,15,15,15,15,17,17,17,17,17,17,17,17,17,17,17,17,17,17,17,17,17,17,17,17,17,17,17,17,17,17,17,17,17,17,17,17,17,17,17,17,17,17,17,17,17,17,17,17,17,17,17,17,17,17,17,17,17,17,17,17,17,17,17,17,17,17,17"
dtnsim.node[16].app.size = "500,50,200,100,500,50,500,200,100,500,50,200,500,100,500,100,100,200,500,50,50,50,50,100,200,500,500,500,500,100,200,50,200,500,500,100,500,200,50,200,500,200,50,200,100,100,50,500,50,100,200,500,200,200,200,100,200,100,50,500,200,200,200,500,500,200,500,50,500,500,100,100,50,50,100,50,50,200,50,200,500,500,200,100,500,200,200,500,50,100,200,50,500,200,50,50,100,100,200,100"
# Node 17 random conversational traffic
dtnsim.node[17].app.enable = true
dtnsim.node[17].app.bundlesNumber = "2,1,1,4,1,4,3,2,1,5,4,4,2,3,5,1,1,1,3,2,3,1,4,3,4,1,1,4,5,2,2,4,4,2,5,4,2,2,4,2,2,4,5,2,1,5,4,5,3,4,3,1,4,3,2,2,3,3,3,2,2,4,3,5,4,2,5,3,4,5,2,5,1,5,1,2,5,3,2,1,2,2,4,5,4,3,4,4,4,5,4,3,3,3,4,3,2,3,5,4"
dtnsim.node[17].app.start = "66,22,9,73,62,7,17,17,52,13,45,87,36,42,32,90,70,25,20,85,55,83,28,12,24,52,23,63,6,20,7,95,18,53,68,19,15,98,20,35,25,57,79,81,22,83,50,65,3,2,1,57,24,85,39,78,84,58,37,43,68,73,7,15,3,4,70,59,33,7,47,45,60,50,13,83,30,51,92,99,14,11,83,39,15,40,10,65,4,5,54,34,7,68,86,56,98,37,31,3"
dtnsim.node[17].app.destinationEid = "16,16,16,16,16,16,16,16,16,16,16,16,16,16,16,16,16,16,16,16,16,16,16,16,16,16,16,16,16,16,16,16,16,16,16,16,16,16,18,18,18,18,18,18,18,18,18,18,18,18,18,18,18,18,18,18,18,18,18,18,18,18,18,18,18,18,18,18,18,18,18,18,18,18,18,18,18,18,18,18,18,18,18,18,18,18,18,18,18,18,18,18,18,18,18,18,18,18,18,18"
dtnsim.node[17].app.size = "100,50,50,500,100,200,200,500,500,500,100,50,500,200,500,500,50,100,100,100,50,100,50,100,50,50,50,500,100,500,500,200,200,100,100,50,50,200,100,50,100,50,500,100,500,200,200,100,500,200,50,500,100,500,200,100,500,100,500,100,100,50,500,500,50,50,500,100,100,200,200,200,100,200,50,50,50,50,200,200,500,200,200,500,500,100,200,50,100,200,500,500,500,200,100,200,200,500,100,100"
# Node 18 random conversational traffic
dtnsim.node[18].app.enable = true
dtnsim.node[18].app.bundlesNumber = "3,4,2,3,4,2,2,3,4,5,4,4,2,4,3,3,2,5,1,2,1,2,5,2,4,3,5,2,2,4,2,3,3,5,4,3,2,4,5,1,1,5,2,3,2,5,1,3,5,4,1,4,2,5,5,3,3,4,4,5,5,3,2,4,1,1,2,4,1,5,3,1,5,4,2,1,3,4,4,3,4,1,1,2,5,5,2,3,3,4,1,5,1,4,5,3,1,2,2,1"
dtnsim.node[18].app.start = "23,42,32,62,85,86,32,87,12,11,88,49,84,61,51,75,13,14,77,64,14,49,49,68,53,22,92,58,100,15,12,93,22,58,41,35,24,24,79,2,74,38,71,61,28,31,41,76,96,11,74,34,66,27,99,94,83,4,39,2,89,1,98,49,94,38,28,48,86,92,8,72,76,13,4,69,98,65,10,42,91,2,66,53,4,44,14,74,20,59,42,8,54,56,59,54,20,90,5,35"
dtnsim.node[18].app.destinationEid = "17,17,17,17,17,17,17,17,17,17,17,17,17,17,17,17,17,17,17,17,17,17,17,17,17,17,17,17,17,17,17,17,17,17,17,17,19,19,19,19,19,19,19,19,19,19,19,19,19,19,19,19,19,19,19,19,19,19,19,19,19,19,19,19,19,19,19,19,19,19,19,19,19,19,19,19,19,19,19,19,19,19,19,19,19,19,19,19,19,19,19,19,19,19,19,19,19,19,19,19"
dtnsim.node[18].app.size = "200,200,500,50,50,100,200,100,500,100,100,200,50,50,500,200,100,100,100,200,200,500,100,50,200,200,200,100,500,100,500,500,500,500,100,50,100,200,50,50,200,200,100,500,200,500,50,500,50,500,50,50,50,50,500,100,50,50,200,100,100,100,500,100,100,100,100,500,50,200,200,50,100,500,50,100,200,500,500,200,100,50,500,200,100,100,50,100,200,50,100,500,100,50,100,100,50,100,200,200"
# Node 19 random conversational traffic
dtnsim.node[19].app.enable = true
dtnsim.node[19].app.bundlesNumber = "2,3,5,1,4,1,1,1,3,4,3,5,1,4,5,5,3,4,1,1,5,1,3,1,5,5,5,3,5,5,2,1,1,5,2,3,3,4,1,1,5,2,5,3,4,3,4,2,3,4,4,1,4,3,3,1,3,4,1,5,5,3,2,4,5,4,4,1,3,1,3,3,2,3,1,3,4,2,3,2,2,2,4,4,5,4,5,3,4,5,1,1,1,5,1,3,4,2,4,4"
dtnsim.node[19].app.start = "33,89,4,83,41,63,77,100,82,40,37,100,95,87,7,41,11,7,100,53,38,56,78,80,15,8,77,15,51,73,61,51,16,81,65,45,60,69,61,7,36,27,64,88,34,57,69,54,79,92,37,16,26,77,57,45,22,20,91,82,93,74,56,55,92,36,70,14,72,68,71,59,68,11,26,31,84,10,16,93,78,40,85,97,45,70,11,25,7,43,45,31,73,93,43,39,83,91,65,59"
dtnsim.node[19].app.destinationEid = "18,18,18,18,18,18,18,18,18,18,18,18,18,18,18,18,18,18,18,18,18,18,18,18,18,18,18,18,18,18,18,18,18,18,18,18,18,18,18,18,18,20,20,20,20,20,20,20,20,20,20,20,20,20,20,20,20,20,20,20,20,20,20,20,20,20,20,20,20,20,20,20,20,20,20,20,20,20,20,20,20,20,20,20,20,20,20,20,20,20,20,20,20,20,20,20,20,20,20,20"
dtnsim.node[19].app.size = "100,200,200,100,50,100,500,500,200,50,100,200,200,50,500,100,50,200,50,200,200,500,50,500,200,100,200,50,500,100,100,50,100,50,500,500,100,50,100,200,200,100,500,500,500,500,500,100,500,500,50,50,50,50,200,200,200,100,100,500,50,500,100,200,200,200,100,100,100,50,100,50,50,100,100,200,500,200,200,100,50,50,50,100,50,200,200,100,200,500,500,100,200,100,500,200,100,50,50,100"
# Node 20 random conversational traffic
dtnsim.node[20].app.enable = true
dtnsim.node[20].app.bundlesNumber = "1,1,3,3,1,1,1,2,2,3,2,5,1,4,4,4,2,2,3,5,3,5,5,5,2,5,3,2,5,1,4,5,5,1,4,3,2,4,3,5,2,3,2,4,3,5,5,4,4,2,4,1,4,5,5,5,5,4,5,4,4,4,5,2,2,2,3,3,1,3,5,1,3,4,5,3,2,4,1,2,4,2,1,4,4,5,3,1,4,4,1,3,3,4,2,3,4,3,1,3"
dtnsim.node[20].app.start = "34,74,95,58,72,64,85,83,59,29,28,85,84,59,24,75,78,72,60,20,15,23,43,91,100,79,14,30,11,45,40,77,96,99,69,79,78,60,7,21,11,35,38,4,49,22,43,67,14,45,34,78,78,8,11,22,78,45,79,15,84,91,9,3,24,63,39,7,33,30,40,34,46,56,79,51,71,80,44,82,34,73,40,35,42,78,67,14,4,2,73,6,3,18,51,82,58,45,65,23"
dtnsim.node[20].app.destinationEid = "19,19,19,19,19,19,19,19,19,19,19,19,19,19,19,19,19,19,19,19,19,19,19,19,19,19,19,19,19,19,19,19,19,19,19,21,21,21,21,21,21,21,21,21,21,21,21,21,21,21,21,21,21,21,21,21,21,21,21,21,21,21,21,21,21,21,21,21,21,21,21,21,21,21,21,21,21,21,21,21,21,21,21,21,21,21,21,21,21,21,21,21,21,21,21,21,21,21,21,21"
dtnsim.node[20].app.size = "200,100,100,200,50,50,500,100,200,500,500,50,50,100,200,500,50,500,500,500,50,50,500,50,100,50,50,100,500,50,500,50,50,200,200,500,200,100,200,100,200,100,500,100,500,500,100,100,500,200,500,50,100,100,500,50,200,100,50,200,200,100,500,50,50,500,500,500,100,100,100,200,100,50,50,500,500,100,200,50,100,200,50,500,50,500,100,50,500,100,100,50,100,50,200,500,500,100,50,100"
# Node 21 random conversational traffic
dtnsim.node[21].app.enable = true
dtnsim.node[21].app.bundlesNumber = "2,4,3,2,5,3,2,2,5,4,2,2,3,3,2,3,2,1,2,4,2,3,2,3,4,4,4,4,2,2,5,4,3,1,5,2,4,2,4,5,5,4,5,5,2,1,2,5,2,5,4,3,2,3,2,1,3,5,1,1,2,2,4,5,3,3,4,3,4,3,4,2,2,5,2,2,3,1,5,4,2,1,5,3,5,2,5,5,3,4,4,4,4,3,5,2,4,5,3,5"
dtnsim.node[21].app.start = "81,10,28,43,48,12,58,76,38,80,31,87,52,83,19,87,8,10,36,35,36,56,87,78,87,45,35,81,42,39,52,68,18,13,82,26,68,71,44,32,93,80,60,73,72,2,83,4,32,32,89,89,67,39,66,6,56,89,79,21,45,46,38,51,27,41,95,99,62,10,96,50,87,48,79,76,23,80,44,82,39,14,83,54,61,49,19,75,25,5,57,46,6,100,36,34,1,34,58,24"
dtnsim.node[21].app.destinationEid = "20,20,20,20,20,20,20,20,20,20,20,20,20,20,20,20,20,20,20,20,20,20,20,20,20,20,20,20,20,20,20,20,20,20,20,20,20,20,22,22,22,22,22,22,22,22,22,22,22,22,22,22,22,22,22,22,22,22,22,22,22,22,22,22,22,22,22,22,22,22,22,22,22,22,22,22,22,22,22,22,22,22,22,22,22,22,22,22,22,22,22,22,22,22,22,22,22,22,22,22"
dtnsim.node[21].app.size = "500,500,100,500,500,100,100,200,50,50,100,200,200,500,500,500,200,200,200,50,500,500,100,100,500,500,50,200,200,100,500,100,500,500,200,500,200,500,200,50,100,200,500,200,50,500,200,500,50,100,100,100,50,200,100,100,200,200,500,200,500,100,50,100,200,100,200,50,500,500,200,500,50,500,500,100,500,100,200,100,200,50,100,50,100,50,500,100,200,50,200,50,100,200,50,50,50,200,50,100"
# Node 22 random conversational traffic
dtnsim.node[22].app.enable = true
dtnsim.node[22].app.bundlesNumber = "2,3,3,1,4,4,2,5,1,3,3,3,1,5,4,2,3,5,1,3,3,2,4,1,1,3,3,4,1,1,3,5,4,2,5,3,1,2,5,5,1,5,5,1,4,4,2,3,4,4,2,2,2,1,5,2,2,3,2,3,1,1,5,1,3,2,3,4,4,4,2,4,2,1,1,1,2,3,5,5,5,4,1,3,1,5,5,5,2,4,3,2,1,4,5,1,1,3,2,3"
dtnsim.node[22].app.start = "48,41,87,69,75,86,12,97,93,71,73,16,93,47,49,30,98,20,99,92,21,84,70,51,29,80,50,100,35,9,40,26,3,35,77,34,42,50,38,2,3,14,99,36,42,92,91,96,38,100,66,75,11,21,60,59,94,7,98,54,52,17,68,5,60,75,30,37,13,12,77,49,90,22,55,98,41,95,48,74,98,88,64,81,28,63,67,27,11,37,26,59,100,16,89,39,76,43,88,48"
dtnsim.node[22].app.destinationEid = "21,21,21,21,21,21,21,21,21,21,21,21,21,21,21,21,21,21,21,21,21,21,21,21,21,21,21,21,21,21,21,21,23,23,23,23,23,23,23,23,23,23,23,23,23,23,23,23,23,23,23,23,23,23,23,23,23,23,23,23,23,23,23,23,23,23,23,23,23,23,23,23,23,23,23,23,23,23,23,23,23,23,23,23,23,23,23,23,23,23,23,23,23,23,23,23,23,23,23,23"