[General]
network = src.dtnsim										
repeat = 1
allow-object-stealing-on-deletion = true

# Simulation end time
sim-time-limit = 84600s

# Nodes quantity (identifiers (EiDs) matches their index, EiD=0 is ignored)			
dtnsim.nodesNumber = 240
dtnsim.node[*].icon = "satellite"

# Nodes's failure rates
dtnsim.node[*].fault.enable = true
dtnsim.node[*].fault.meanTTF = 90s
dtnsim.node[*].fault.meanTTR = 10s

# Mobility
dtnsim.node[*].hasMobility = true
dtnsim.node[*].noradModule.satIndex = parentIndex()
dtnsim.node[*].noradModule.satName = "sat"
**.updateInterval = 20s
**.numOfSats = 240
**.satPerPlane = 12
**.altitude = 540
**.planes = 20
**.phaseOffset = 11

dtnsim.node[*].dtn.routing = "antop"
dtnsim.node[*].dtn.printRoutingDebug = true

# --- Random Traffic Configuration ---
# Node 1 random traffic
dtnsim.node[1].app.enable = true
dtnsim.node[1].app.bundlesNumber = "1,1,1,1,1,1,1,1,1,1,1,1,1,1,1,1,1,1,1,1,1,1,1,1,1,1,1,1,1,1,1,1,1,1,1,1,1,1,1,1,1,1,1,1,1,1,1,1,1,1,1,1,1,1,1,1,1,1,1,1,1,1,1,1,1,1,1,1,1,1,1,1,1,1,1,1,1,1,1,1,1,1,1,1,1,1,1,1,1,1,1,1,1,1,1,1,1,1,1,1"
dtnsim.node[1].app.start = "18,6,3,17,19,2,13,12,18,1,11,15,20,4,10,1,14,2,20,20,3,5,10,16,1,10,19,17,12,14,13,19,19,16,14,13,17,18,9,11,5,20,15,2,14,13,17,7,13,19,20,7,17,8,17,12,18,17,10,20,10,10,8,4,16,12,8,8,14,19,4,6,2,9,8,17,10,20,12,14,14,1,5,7,8,15,1,19,14,20,14,14,13,13,6,14,13,18,13,15"
dtnsim.node[1].app.destinationEid = "205,152,153,191,186,9,110,210,49,200,117,90,60,105,98,72,109,99,90,68,5,107,112,9,150,200,8,92,111,52,85,79,194,5,219,82,21,206,61,91,194,71,124,118,168,46,9,146,203,66,157,215,224,5,211,206,238,189,106,45,68,91,231,102,77,34,97,48,40,17,72,13,236,107,38,47,74,139,229,202,159,197,132,41,227,99,134,79,29,152,142,121,151,113,19,16,28,180,216,159"
dtnsim.node[1].app.size = "500,50,100,100,200,200,500,100,100,50,500,500,200,500,200,100,200,500,50,500,500,200,500,50,50,200,100,100,500,500,200,50,500,50,500,50,100,50,100,200,200,200,50,100,50,500,500,50,500,200,50,500,200,100,200,100,200,100,50,100,100,500,50,500,500,50,100,200,50,500,500,200,100,500,50,200,50,200,50,50,50,100,50,100,200,100,50,50,200,500,100,100,500,500,100,500,200,100,50,100"
        # Node 2 random traffic
dtnsim.node[2].app.enable = true
dtnsim.node[2].app.bundlesNumber = "1,1,1,1,1,1,1,1,1,1,1,1,1,1,1,1,1,1,1,1,1,1,1,1,1,1,1,1,1,1,1,1,1,1,1,1,1,1,1,1,1,1,1,1,1,1,1,1,1,1,1,1,1,1,1,1,1,1,1,1,1,1,1,1,1,1,1,1,1,1,1,1,1,1,1,1,1,1,1,1,1,1,1,1,1,1,1,1,1,1,1,1,1,1,1,1,1,1,1,1"
dtnsim.node[2].app.start = "20,2,2,3,13,2,11,1,15,2,17,14,8,3,19,3,8,13,3,4,18,11,11,4,18,19,2,7,8,5,14,7,6,19,3,15,8,6,9,19,11,18,9,11,1,14,7,10,5,14,20,19,20,1,15,11,9,18,18,19,4,14,4,6,14,16,13,4,12,5,10,3,7,14,6,14,1,10,17,9,13,14,2,15,2,13,5,1,1,2,2,12,16,13,16,11,13,9,4,6"
dtnsim.node[2].app.destinationEid = "55,227,8,84,206,239,127,105,85,56,147,206,69,74,117,194,167,170,208,156,42,195,130,110,83,89,24,149,5,202,163,111,222,240,32,159,161,22,215,218,232,198,198,179,41,88,18,54,183,25,224,236,213,121,173,145,220,159,188,54,131,57,219,118,5,82,58,187,190,204,89,145,87,9,30,79,75,150,47,10,154,97,139,61,55,131,189,84,116,150,207,101,232,229,161,146,168,42,170,183"
dtnsim.node[2].app.size = "50,500,200,500,500,500,500,200,100,200,500,200,200,50,200,100,500,200,100,200,500,500,100,500,50,100,200,200,500,100,200,100,50,50,500,100,100,100,50,100,50,50,100,100,100,500,500,100,100,500,50,50,100,500,200,50,50,50,100,500,50,500,200,50,50,500,100,100,500,50,50,100,50,50,500,100,50,50,200,100,500,50,500,100,500,500,50,500,50,500,50,50,500,500,100,200,200,100,500,500"
        # Node 3 random traffic
dtnsim.node[3].app.enable = true
dtnsim.node[3].app.bundlesNumber = "1,1,1,1,1,1,1,1,1,1,1,1,1,1,1,1,1,1,1,1,1,1,1,1,1,1,1,1,1,1,1,1,1,1,1,1,1,1,1,1,1,1,1,1,1,1,1,1,1,1,1,1,1,1,1,1,1,1,1,1,1,1,1,1,1,1,1,1,1,1,1,1,1,1,1,1,1,1,1,1,1,1,1,1,1,1,1,1,1,1,1,1,1,1,1,1,1,1,1,1"
dtnsim.node[3].app.start = "20,17,11,19,5,14,10,18,11,16,4,15,20,12,11,10,9,12,2,2,12,11,12,2,3,17,4,20,16,12,12,5,4,18,15,10,14,17,16,10,13,2,17,18,14,14,9,15,15,12,3,13,2,3,11,3,6,16,12,18,8,12,2,8,2,17,2,18,18,13,8,15,7,9,6,6,18,9,2,6,1,8,14,16,20,16,9,1,20,11,19,19,4,15,6,4,10,11,13,15"
dtnsim.node[3].app.destinationEid = "76,230,151,189,63,37,230,104,86,16,213,188,147,217,203,143,142,79,194,171,184,61,20,162,200,186,70,139,115,219,103,199,117,129,89,72,237,83,46,205,136,51,175,55,133,93,227,86,197,50,166,118,163,201,10,209,236,24,14,14,14,34,57,176,188,207,146,228,235,72,14,117,57,124,170,88,218,113,160,102,139,171,176,20,229,232,162,113,177,45,29,14,189,160,34,221,73,33,30,52"
dtnsim.node[3].app.size = "200,500,500,500,50,500,200,50,500,100,50,200,200,50,50,500,100,500,500,100,100,100,100,100,50,100,100,200,50,50,500,500,50,50,50,200,50,100,200,200,500,50,50,50,500,500,200,50,50,50,200,50,200,500,200,50,200,100,50,500,100,200,100,50,100,100,50,200,500,500,500,50,500,200,500,100,50,50,500,100,50,100,500,100,500,50,100,100,100,100,200,200,200,50,500,50,100,500,500,100"
        # Node 4 random traffic
dtnsim.node[4].app.enable = true
dtnsim.node[4].app.bundlesNumber = "1,1,1,1,1,1,1,1,1,1,1,1,1,1,1,1,1,1,1,1,1,1,1,1,1,1,1,1,1,1,1,1,1,1,1,1,1,1,1,1,1,1,1,1,1,1,1,1,1,1,1,1,1,1,1,1,1,1,1,1,1,1,1,1,1,1,1,1,1,1,1,1,1,1,1,1,1,1,1,1,1,1,1,1,1,1,1,1,1,1,1,1,1,1,1,1,1,1,1,1"
dtnsim.node[4].app.start = "6,9,7,10,3,6,18,13,16,11,20,15,14,9,11,16,20,3,3,15,20,8,19,5,9,17,19,5,5,16,9,18,11,10,14,16,2,9,6,12,5,3,8,5,15,8,12,6,5,13,16,18,6,2,7,18,9,17,14,20,11,15,2,14,12,14,5,17,5,15,19,17,17,4,20,3,14,12,17,1,11,2,16,5,17,14,16,13,5,8,10,14,12,18,19,4,4,1,10,20"
dtnsim.node[4].app.destinationEid = "136,119,47,70,60,55,185,214,85,227,188,142,152,87,114,180,240,2,1,160,163,82,53,113,66,11,90,76,8,27,137,150,128,170,189,94,206,222,6,198,166,81,80,228,162,132,180,28,29,138,240,134,136,1,145,126,166,234,31,24,175,194,80,136,52,5,192,37,94,199,229,165,132,111,226,216,117,156,34,78,199,199,95,73,86,18,64,139,75,18,137,109,60,238,215,152,25,71,23,190"
dtnsim.node[4].app.size = "100,50,100,50,100,500,50,500,500,100,200,50,500,100,500,500,200,100,100,50,500,500,100,200,200,50,100,500,200,500,200,50,200,200,500,500,50,50,100,100,50,50,500,200,50,200,100,50,50,50,500,100,100,100,100,500,100,200,50,100,200,100,50,100,50,500,100,200,500,500,50,500,500,100,200,500,100,50,200,50,100,50,50,100,500,500,100,500,50,50,200,100,100,100,100,500,200,500,200,50"
        # Node 5 random traffic
dtnsim.node[5].app.enable = true
dtnsim.node[5].app.bundlesNumber = "1,1,1,1,1,1,1,1,1,1,1,1,1,1,1,1,1,1,1,1,1,1,1,1,1,1,1,1,1,1,1,1,1,1,1,1,1,1,1,1,1,1,1,1,1,1,1,1,1,1,1,1,1,1,1,1,1,1,1,1,1,1,1,1,1,1,1,1,1,1,1,1,1,1,1,1,1,1,1,1,1,1,1,1,1,1,1,1,1,1,1,1,1,1,1,1,1,1,1,1"
dtnsim.node[5].app.start = "14,14,13,7,14,9,20,16,7,2,11,11,8,4,5,19,3,11,14,3,11,18,19,13,9,11,15,15,12,12,20,4,6,2,8,16,1,3,14,14,2,15,3,5,4,11,10,10,17,5,13,7,14,9,16,4,13,5,11,11,16,18,17,2,18,12,13,2,3,3,16,19,5,10,10,5,2,11,11,20,12,19,16,5,7,14,9,9,6,18,6,19,17,8,1,9,13,13,12,13"
dtnsim.node[5].app.destinationEid = "217,88,202,154,65,158,131,29,36,188,177,209,205,228,229,201,8,225,151,65,71,50,78,157,84,228,31,75,202,44,30,186,9,104,94,97,29,201,197,134,39,187,226,22,123,181,210,56,74,186,145,20,76,60,125,124,98,113,175,100,62,196,140,97,43,193,65,78,103,166,69,35,6,26,114,211,103,230,24,17,105,239,169,12,190,18,13,34,106,227,42,59,189,135,74,26,205,237,126,4"
dtnsim.node[5].app.size = "100,100,200,100,50,50,200,100,500,500,200,100,200,200,200,500,200,50,100,50,50,200,500,100,50,200,100,100,200,50,500,100,500,50,200,50,200,500,100,50,100,50,500,50,200,50,200,50,50,50,100,50,500,100,500,500,50,50,50,50,100,200,50,100,100,50,50,200,500,200,100,100,200,100,100,100,100,50,200,500,100,200,200,200,100,100,100,500,500,100,50,200,200,200,50,100,100,200,500,500"
        # Node 6 random traffic
dtnsim.node[6].app.enable = true
dtnsim.node[6].app.bundlesNumber = "1,1,1,1,1,1,1,1,1,1,1,1,1,1,1,1,1,1,1,1,1,1,1,1,1,1,1,1,1,1,1,1,1,1,1,1,1,1,1,1,1,1,1,1,1,1,1,1,1,1,1,1,1,1,1,1,1,1,1,1,1,1,1,1,1,1,1,1,1,1,1,1,1,1,1,1,1,1,1,1,1,1,1,1,1,1,1,1,1,1,1,1,1,1,1,1,1,1,1,1"
dtnsim.node[6].app.start = "13,7,2,10,19,7,2,9,18,16,11,9,14,10,3,14,12,10,13,19,16,1,20,19,17,11,15,19,11,3,6,2,14,10,10,12,15,6,12,13,7,15,1,13,5,2,10,3,11,11,8,2,11,11,2,20,20,14,8,5,12,17,2,15,7,8,5,18,4,14,13,9,5,18,17,9,18,15,18,14,3,15,11,9,1,8,8,5,5,15,16,7,10,15,7,17,11,13,11,11"
dtnsim.node[6].app.destinationEid = "89,56,66,60,206,31,88,91,31,114,156,159,145,210,61,192,3,198,190,186,29,149,69,228,225,224,77,206,191,48,91,50,98,226,83,126,135,226,62,240,77,63,181,41,75,117,127,219,240,33,159,35,22,139,138,12,184,199,166,122,221,174,141,171,62,13,27,83,138,212,99,84,151,101,62,76,99,95,121,98,125,72,190,51,69,221,88,140,225,20,142,48,19,156,116,16,162,171,13,93"
dtnsim.node[6].app.size = "50,500,500,200,500,500,500,200,100,500,500,100,100,500,200,50,500,200,50,200,100,50,500,50,50,200,50,50,100,500,200,200,200,500,500,100,500,50,500,200,100,100,200,200,100,500,200,500,500,200,200,500,200,50,500,200,200,500,500,200,100,500,100,200,100,200,500,500,200,200,500,200,100,50,100,500,100,100,500,500,50,100,200,500,100,100,100,500,100,200,200,50,50,200,500,50,50,100,100,50"
        # Node 7 random traffic
dtnsim.node[7].app.enable = true
dtnsim.node[7].app.bundlesNumber = "1,1,1,1,1,1,1,1,1,1,1,1,1,1,1,1,1,1,1,1,1,1,1,1,1,1,1,1,1,1,1,1,1,1,1,1,1,1,1,1,1,1,1,1,1,1,1,1,1,1,1,1,1,1,1,1,1,1,1,1,1,1,1,1,1,1,1,1,1,1,1,1,1,1,1,1,1,1,1,1,1,1,1,1,1,1,1,1,1,1,1,1,1,1,1,1,1,1,1,1"
dtnsim.node[7].app.start = "7,9,13,3,15,8,9,14,1,16,1,11,9,4,13,2,13,2,18,17,7,13,7,18,15,1,7,3,14,17,8,20,7,1,20,3,9,20,13,20,1,18,9,11,17,10,11,15,19,12,8,16,13,8,6,19,10,3,17,18,3,1,1,20,11,17,18,8,12,1,13,16,7,20,4,6,5,17,12,5,17,2,20,17,12,4,16,16,18,20,8,20,10,18,16,1,19,4,16,7"
dtnsim.node[7].app.destinationEid = "24,217,237,65,147,199,59,10,69,228,60,120,73,125,93,120,199,4,96,2,56,188,19,73,24,35,115,30,185,35,78,61,215,36,224,225,47,76,212,121,182,184,71,216,2,105,75,239,40,110,70,108,24,235,3,95,221,20,118,166,117,19,237,112,16,224,65,46,111,187,112,31,104,41,166,114,33,108,107,72,153,42,33,41,218,23,8,166,99,148,147,207,143,111,85,53,160,224,54,195"
dtnsim.node[7].app.size = "200,500,100,500,200,100,50,200,200,100,50,500,100,200,500,100,200,50,200,500,50,500,500,200,500,50,500,100,50,100,100,100,50,200,500,200,50,200,100,100,200,50,100,200,500,200,500,100,200,100,50,100,500,100,500,50,200,50,500,200,500,50,50,200,500,200,500,500,200,50,500,200,200,200,500,50,500,50,50,50,200,500,500,200,100,100,50,500,200,500,200,100,200,50,50,500,50,50,200,200"
        # Node 8 random traffic
dtnsim.node[8].app.enable = true
dtnsim.node[8].app.bundlesNumber = "1,1,1,1,1,1,1,1,1,1,1,1,1,1,1,1,1,1,1,1,1,1,1,1,1,1,1,1,1,1,1,1,1,1,1,1,1,1,1,1,1,1,1,1,1,1,1,1,1,1,1,1,1,1,1,1,1,1,1,1,1,1,1,1,1,1,1,1,1,1,1,1,1,1,1,1,1,1,1,1,1,1,1,1,1,1,1,1,1,1,1,1,1,1,1,1,1,1,1,1"
dtnsim.node[8].app.start = "16,15,8,18,7,2,2,19,12,12,13,19,5,18,16,7,16,2,1,17,1,20,12,8,3,20,16,13,20,13,8,1,12,11,7,20,10,19,5,3,9,1,15,2,16,19,18,9,17,16,1,11,5,6,15,3,15,1,12,15,20,18,18,17,19,7,4,16,4,3,9,1,3,16,2,11,1,12,5,8,7,16,16,11,4,15,9,9,17,17,11,3,8,10,19,18,10,20,14,11"
dtnsim.node[8].app.destinationEid = "181,86,130,93,41,192,2,95,172,93,122,141,158,236,47,84,61,102,210,118,7,37,29,44,148,233,225,130,16,208,149,192,45,218,70,140,13,192,185,135,191,147,217,233,127,69,79,115,179,195,76,212,162,41,191,239,200,163,112,7,182,151,147,4,166,234,193,177,112,56,55,56,2,174,93,7,36,48,138,196,145,102,170,51,17,81,50,94,227,49,72,15,76,168,159,200,132,50,118,48"
dtnsim.node[8].app.size = "200,100,100,500,100,500,500,200,100,500,50,500,200,50,100,200,50,50,100,50,100,500,100,50,200,500,500,50,500,500,100,500,200,500,100,200,500,200,50,500,200,100,100,500,200,500,500,500,500,100,100,50,500,200,200,100,500,50,200,500,500,200,100,50,50,500,100,200,500,200,200,50,50,200,50,100,200,100,500,50,100,200,50,100,100,100,200,200,500,50,50,500,100,500,500,50,200,50,100,50"
        # Node 9 random traffic
dtnsim.node[9].app.enable = true
dtnsim.node[9].app.bundlesNumber = "1,1,1,1,1,1,1,1,1,1,1,1,1,1,1,1,1,1,1,1,1,1,1,1,1,1,1,1,1,1,1,1,1,1,1,1,1,1,1,1,1,1,1,1,1,1,1,1,1,1,1,1,1,1,1,1,1,1,1,1,1,1,1,1,1,1,1,1,1,1,1,1,1,1,1,1,1,1,1,1,1,1,1,1,1,1,1,1,1,1,1,1,1,1,1,1,1,1,1,1"
dtnsim.node[9].app.start = "16,9,5,1,14,16,6,13,19,16,8,17,7,9,15,16,8,17,8,7,16,13,1,4,13,6,19,7,17,3,4,19,2,17,2,11,19,4,18,6,6,19,20,11,1,13,13,12,19,9,16,1,14,16,12,12,12,13,5,6,4,3,17,5,18,14,6,18,8,5,14,17,15,18,4,16,18,8,7,12,8,1,16,3,9,10,13,11,5,13,12,4,16,12,17,11,4,13,1,7"
dtnsim.node[9].app.destinationEid = "165,158,101,64,88,147,60,160,219,155,48,117,33,58,63,208,54,91,54,232,23,52,156,26,119,236,124,38,72,22,93,130,106,78,18,196,63,217,34,163,21,232,189,146,88,103,192,201,233,54,60,58,108,33,164,98,32,170,151,138,143,198,152,108,94,240,71,12,35,176,50,232,151,112,118,58,131,66,85,147,52,147,147,133,163,233,14,136,220,202,182,174,194,50,38,36,121,222,211,187"
dtnsim.node[9].app.size = "50,100,50,50,50,200,50,500,50,100,50,50,100,200,50,50,100,100,200,100,500,50,200,200,100,200,200,100,500,500,500,500,500,200,200,100,50,50,100,500,500,500,200,200,100,50,500,100,200,50,100,100,100,100,100,200,500,200,50,50,100,200,50,50,50,500,500,100,200,50,200,200,200,100,500,500,100,200,50,200,100,100,50,200,200,500,500,200,500,500,100,50,50,200,500,50,50,100,100,50"
        # Node 10 random traffic
dtnsim.node[10].app.enable = true
dtnsim.node[10].app.bundlesNumber = "1,1,1,1,1,1,1,1,1,1,1,1,1,1,1,1,1,1,1,1,1,1,1,1,1,1,1,1,1,1,1,1,1,1,1,1,1,1,1,1,1,1,1,1,1,1,1,1,1,1,1,1,1,1,1,1,1,1,1,1,1,1,1,1,1,1,1,1,1,1,1,1,1,1,1,1,1,1,1,1,1,1,1,1,1,1,1,1,1,1,1,1,1,1,1,1,1,1,1,1"
dtnsim.node[10].app.start = "9,3,13,15,6,16,17,7,13,17,13,7,8,18,14,20,4,6,5,1,3,12,10,6,10,5,3,19,3,2,6,4,14,6,6,6,5,8,14,7,1,7,11,19,10,16,7,14,6,1,18,16,18,17,8,7,19,18,4,2,13,10,17,18,8,1,20,4,3,15,19,8,9,13,12,2,11,12,15,16,12,16,6,2,4,11,5,14,13,2,3,16,1,15,14,19,19,7,3,2"
dtnsim.node[10].app.destinationEid = "203,62,68,98,32,124,134,232,45,43,229,159,195,90,11,34,24,144,210,147,88,210,153,75,209,143,198,152,221,77,148,226,229,93,77,87,181,93,129,84,61,96,211,4,223,233,233,185,42,223,110,238,225,12,216,202,162,135,126,45,3,209,107,57,7,163,169,114,43,77,49,193,199,134,78,127,73,12,193,200,83,43,145,207,234,179,237,150,51,180,34,141,128,217,16,121,197,39,146,63"
dtnsim.node[10].app.size = "50,200,200,50,50,500,200,50,50,100,50,200,50,200,500,200,200,100,50,200,500,100,200,100,50,500,50,500,500,50,100,500,200,50,500,100,500,100,100,500,200,100,200,500,100,200,200,500,100,500,200,500,200,500,50,50,200,100,500,50,50,50,50,200,500,50,50,100,50,200,100,500,50,50,500,500,100,100,50,100,100,100,200,200,100,200,200,100,500,200,200,500,500,100,200,50,50,200,500,500"
        # Node 11 random traffic
dtnsim.node[11].app.enable = true
dtnsim.node[11].app.bundlesNumber = "1,1,1,1,1,1,1,1,1,1,1,1,1,1,1,1,1,1,1,1,1,1,1,1,1,1,1,1,1,1,1,1,1,1,1,1,1,1,1,1,1,1,1,1,1,1,1,1,1,1,1,1,1,1,1,1,1,1,1,1,1,1,1,1,1,1,1,1,1,1,1,1,1,1,1,1,1,1,1,1,1,1,1,1,1,1,1,1,1,1,1,1,1,1,1,1,1,1,1,1"
dtnsim.node[11].app.start = "3,20,11,1,14,13,4,7,16,7,7,5,20,1,2,6,17,13,18,1,10,19,15,9,13,12,4,17,1,16,10,5,19,2,4,7,5,7,14,19,20,5,6,8,10,18,8,19,1,1,10,12,18,15,14,3,7,5,12,10,14,8,10,14,6,20,4,19,15,13,16,3,16,20,3,17,9,13,17,4,19,19,10,11,6,4,20,9,15,7,12,4,5,1,14,13,19,4,20,14"
dtnsim.node[11].app.destinationEid = "156,73,113,138,151,188,208,132,76,167,4,4,10,138,1,208,24,83,231,97,49,68,55,34,220,8,46,202,145,45,170,224,153,24,106,234,149,233,14,172,115,201,47,7,31,165,160,189,99,191,177,47,160,105,162,7,214,194,136,175,173,157,93,150,187,31,10,193,39,160,179,158,51,107,45,27,113,192,203,40,220,25,21,47,73,204,140,136,165,153,43,213,49,156,192,180,124,162,108,24"
dtnsim.node[11].app.size = "500,50,500,500,200,50,200,200,100,100,50,50,50,100,50,100,50,100,200,200,100,50,50,200,50,100,200,100,50,50,200,500,100,100,100,200,500,50,50,500,50,100,200,200,200,200,200,200,100,200,500,500,200,50,50,50,50,100,100,200,100,50,500,50,50,500,200,500,500,500,500,200,50,500,50,200,500,200,500,100,500,50,500,100,500,100,100,200,200,500,100,500,50,200,50,50,50,50,50,50"
        # Node 12 random traffic
dtnsim.node[12].app.enable = true
dtnsim.node[12].app.bundlesNumber = "1,1,1,1,1,1,1,1,1,1,1,1,1,1,1,1,1,1,1,1,1,1,1,1,1,1,1,1,1,1,1,1,1,1,1,1,1,1,1,1,1,1,1,1,1,1,1,1,1,1,1,1,1,1,1,1,1,1,1,1,1,1,1,1,1,1,1,1,1,1,1,1,1,1,1,1,1,1,1,1,1,1,1,1,1,1,1,1,1,1,1,1,1,1,1,1,1,1,1,1"
dtnsim.node[12].app.start = "19,13,3,9,9,6,17,11,19,1,11,1,18,3,6,16,19,18,2,18,14,7,2,9,1,20,20,17,1,17,8,14,19,10,4,17,6,18,13,11,4,4,8,11,8,19,16,4,9,20,12,20,1,18,4,5,15,15,16,12,8,18,1,12,18,13,12,16,20,13,13,5,6,14,5,19,4,15,7,7,20,4,12,16,12,6,17,16,16,13,3,16,10,15,15,17,10,2,7,18"
dtnsim.node[12].app.destinationEid = "163,73,224,136,180,109,178,222,24,134,189,220,212,194,223,114,179,199,170,13,205,128,144,228,7,210,150,116,234,151,143,9,104,89,232,122,171,96,53,224,28,42,157,105,208,166,120,79,221,104,69,48,127,114,18,228,152,200,90,158,106,170,125,31,234,81,221,238,171,231,58,208,154,139,90,55,214,8,76,211,165,181,157,134,113,139,103,125,39,217,127,37,58,96,145,83,178,146,239,30"
dtnsim.node[12].app.size = "100,100,100,200,200,50,100,200,100,50,500,500,50,50,50,200,500,500,200,500,100,100,200,200,200,200,50,50,200,100,100,100,200,200,500,50,100,50,500,50,500,500,500,50,200,100,200,50,500,100,50,500,50,200,200,100,100,500,200,200,100,200,500,100,50,100,100,50,200,500,50,100,500,50,500,100,100,200,500,200,100,50,100,500,50,100,500,50,50,200,100,500,100,500,100,100,200,200,500,500"
        # Node 13 random traffic
dtnsim.node[13].app.enable = true
dtnsim.node[13].app.bundlesNumber = "1,1,1,1,1,1,1,1,1,1,1,1,1,1,1,1,1,1,1,1,1,1,1,1,1,1,1,1,1,1,1,1,1,1,1,1,1,1,1,1,1,1,1,1,1,1,1,1,1,1,1,1,1,1,1,1,1,1,1,1,1,1,1,1,1,1,1,1,1,1,1,1,1,1,1,1,1,1,1,1,1,1,1,1,1,1,1,1,1,1,1,1,1,1,1,1,1,1,1,1"
dtnsim.node[13].app.start = "10,8,2,5,19,19,13,9,14,5,18,17,1,5,17,14,6,8,16,19,12,18,10,11,7,13,10,7,18,11,19,11,14,7,15,20,12,10,16,16,15,4,15,9,19,15,17,14,12,1,16,1,1,20,18,15,2,4,1,7,10,13,15,5,14,14,3,1,4,18,1,17,12,17,17,9,14,3,18,6,17,13,2,12,10,5,20,16,7,10,6,15,13,18,5,6,12,13,2,8"
dtnsim.node[13].app.destinationEid = "104,222,186,11,222,53,150,47,177,66,195,169,152,87,103,22,84,68,194,49,126,66,230,6,1,119,121,120,221,135,210,188,133,25,156,179,168,223,111,163,140,162,150,57,23,114,66,200,220,36,239,75,64,86,235,228,53,19,182,147,204,19,188,182,124,33,32,152,115,188,70,26,120,209,159,124,91,97,45,113,142,111,37,59,70,217,145,232,103,109,160,25,48,139,83,88,193,139,68,115"
dtnsim.node[13].app.size = "50,500,200,500,50,50,200,50,50,200,50,200,50,50,50,200,200,500,100,200,100,100,500,200,50,100,500,200,50,200,500,200,200,100,100,50,500,50,500,100,200,50,50,500,50,100,50,500,50,50,50,200,50,50,100,500,100,200,100,100,500,100,200,100,500,500,200,200,500,100,50,200,500,50,500,100,100,200,500,500,200,100,200,50,500,50,100,50,50,200,200,50,50,200,500,100,50,100,100,50"
        # Node 14 random traffic
dtnsim.node[14].app.enable = true
dtnsim.node[14].app.bundlesNumber = "1,1,1,1,1,1,1,1,1,1,1,1,1,1,1,1,1,1,1,1,1,1,1,1,1,1,1,1,1,1,1,1,1,1,1,1,1,1,1,1,1,1,1,1,1,1,1,1,1,1,1,1,1,1,1,1,1,1,1,1,1,1,1,1,1,1,1,1,1,1,1,1,1,1,1,1,1,1,1,1,1,1,1,1,1,1,1,1,1,1,1,1,1,1,1,1,1,1,1,1"
dtnsim.node[14].app.start = "4,13,11,5,18,7,16,16,3,6,12,16,12,20,1,7,3,5,20,15,13,10,17,1,13,20,20,16,7,14,19,1,14,10,2,18,19,14,6,14,9,2,13,15,17,20,5,1,10,8,15,5,14,7,9,20,12,2,17,9,5,16,19,13,4,14,19,7,18,8,4,7,20,8,18,6,13,11,15,17,9,16,14,1,19,12,19,10,8,13,14,2,15,6,14,4,4,3,11,18"
dtnsim.node[14].app.destinationEid = "2,124,43,104,100,217,40,57,33,141,202,73,97,73,92,78,92,175,31,71,194,126,100,111,192,211,31,56,46,180,208,18,92,4,235,78,191,108,149,54,103,172,12,221,58,221,128,108,64,140,40,25,139,203,206,228,23,239,109,101,42,65,127,237,33,34,109,55,8,93,52,71,80,190,20,59,49,54,213,126,35,85,219,18,185,122,96,227,192,120,7,209,15,15,51,52,203,9,33,153"
dtnsim.node[14].app.size = "500,50,50,100,100,100,200,500,50,200,200,100,200,100,500,500,200,500,100,100,500,100,500,200,500,200,100,100,500,100,200,50,50,50,50,200,100,200,50,50,200,50,100,500,50,100,100,200,200,100,500,100,500,100,500,500,100,100,500,500,200,100,200,100,50,500,50,100,200,200,500,500,100,500,500,500,100,100,50,500,500,200,500,200,100,500,200,200,500,500,200,500,500,50,200,500,100,500,500,100"
        # Node 15 random traffic
dtnsim.node[15].app.enable = true
dtnsim.node[15].app.bundlesNumber = "1,1,1,1,1,1,1,1,1,1,1,1,1,1,1,1,1,1,1,1,1,1,1,1,1,1,1,1,1,1,1,1,1,1,1,1,1,1,1,1,1,1,1,1,1,1,1,1,1,1,1,1,1,1,1,1,1,1,1,1,1,1,1,1,1,1,1,1,1,1,1,1,1,1,1,1,1,1,1,1,1,1,1,1,1,1,1,1,1,1,1,1,1,1,1,1,1,1,1,1"
dtnsim.node[15].app.start = "13,12,5,16,20,1,1,4,6,4,19,18,10,3,16,17,3,9,8,8,18,9,19,5,19,15,8,6,10,12,7,19,2,14,19,20,10,10,10,11,12,8,9,11,20,5,7,18,18,20,12,18,8,18,13,2,8,5,7,7,11,1,8,19,20,12,6,1,19,3,10,19,4,14,13,11,1,18,14,2,2,12,18,1,13,6,16,6,15,8,13,3,4,20,18,20,6,12,16,11"
dtnsim.node[15].app.destinationEid = "222,45,10,186,115,126,150,114,115,158,74,50,141,189,89,164,199,184,12,2,97,96,113,69,190,34,127,91,32,203,32,40,102,159,137,151,50,117,14,63,18,75,115,40,24,227,183,31,77,80,177,176,98,146,183,153,220,144,40,46,189,180,74,9,67,84,181,68,134,66,41,150,167,114,59,143,99,56,131,85,207,165,119,240,108,48,160,198,188,225,79,232,184,235,211,239,73,240,230,214"
dtnsim.node[15].app.size = "50,50,50,200,50,50,200,100,200,50,200,200,500,500,50,100,500,500,500,200,100,50,500,100,50,200,500,500,50,100,200,100,50,200,50,100,50,500,200,500,500,500,200,50,200,100,100,500,50,200,100,500,500,200,500,200,100,50,500,100,200,100,500,100,100,500,200,100,50,500,50,50,50,100,100,500,50,500,100,100,200,200,50,200,500,50,100,200,100,50,50,50,500,500,200,50,200,200,200,200"
        # Node 16 random traffic
dtnsim.node[16].app.enable = true
dtnsim.node[16].app.bundlesNumber = "1,1,1,1,1,1,1,1,1,1,1,1,1,1,1,1,1,1,1,1,1,1,1,1,1,1,1,1,1,1,1,1,1,1,1,1,1,1,1,1,1,1,1,1,1,1,1,1,1,1,1,1,1,1,1,1,1,1,1,1,1,1,1,1,1,1,1,1,1,1,1,1,1,1,1,1,1,1,1,1,1,1,1,1,1,1,1,1,1,1,1,1,1,1,1,1,1,1,1,1"
dtnsim.node[16].app.start = "2,11,8,20,6,20,4,8,12,9,17,3,11,14,12,6,3,20,8,16,20,18,3,9,9,17,13,20,7,5,10,19,1,15,15,16,8,20,10,10,2,1,16,17,3,18,6,11,9,9,5,10,11,7,7,5,5,2,5,3,13,15,7,3,20,17,3,5,17,3,14,5,14,5,12,6,13,4,2,4,9,18,7,15,14,19,9,6,5,17,8,19,12,10,13,11,1,14,3,6"
dtnsim.node[16].app.destinationEid = "194,188,186,166,231,10,140,153,59,204,187,31,152,141,87,8,174,154,68,218,57,48,9,36,167,22,149,211,199,56,221,57,212,17,157,52,237,175,174,87,120,18,223,228,77,64,231,70,96,78,170,82,165,65,220,99,7,197,25,212,230,81,21,56,178,205,225,18,133,114,231,213,150,28,197,80,229,165,225,6,208,151,72,194,27,38,65,119,24,170,197,156,88,177,96,174,199,163,195,42"
dtnsim.node[16].app.size = "50,200,500,100,100,500,500,100,500,500,200,200,50,100,100,500,100,100,50,500,50,100,500,50,200,100,50,50,200,500,500,50,100,100,100,100,200,200,200,500,500,50,50,100,50,200,200,500,200,100,500,500,500,200,50,50,100,50,500,200,100,200,500,200,100,200,200,100,100,500,500,500,100,50,50,100,500,500,500,500,200,50,50,100,200,200,200,50,100,50,500,200,200,200,50,500,50,200,200,500"
        # Node 17 random traffic
dtnsim.node[17].app.enable = true
dtnsim.node[17].app.bundlesNumber = "1,1,1,1,1,1,1,1,1,1,1,1,1,1,1,1,1,1,1,1,1,1,1,1,1,1,1,1,1,1,1,1,1,1,1,1,1,1,1,1,1,1,1,1,1,1,1,1,1,1,1,1,1,1,1,1,1,1,1,1,1,1,1,1,1,1,1,1,1,1,1,1,1,1,1,1,1,1,1,1,1,1,1,1,1,1,1,1,1,1,1,1,1,1,1,1,1,1,1,1"
dtnsim.node[17].app.start = "7,8,19,15,14,11,11,14,18,14,9,1,12,9,11,7,12,9,15,20,8,17,7,18,9,9,18,14,17,18,4,17,19,5,16,6,3,19,15,4,7,16,14,18,7,13,4,13,19,14,5,1,1,19,1,4,11,5,11,14,5,19,9,18,6,13,18,1,12,4,4,8,7,4,11,1,8,17,20,15,13,13,7,10,1,18,8,20,18,18,13,3,10,3,11,19,10,20,8,4"
dtnsim.node[17].app.destinationEid = "215,207,29,48,14,180,96,44,23,120,217,215,18,210,195,12,57,60,171,81,89,156,89,228,75,62,117,26,121,61,8,69,9,46,234,169,164,88,112,201,188,102,95,51,93,160,33,135,216,201,3,121,165,99,240,236,6,219,55,97,216,69,208,226,206,239,160,198,103,59,108,135,3,10,10,108,40,31,94,163,239,11,239,211,75,108,129,141,22,114,16,89,221,220,161,148,121,232,40,37"
dtnsim.node[17].app.size = "100,50,200,50,100,500,50,200,500,100,100,100,50,50,200,100,500,200,500,500,100,200,500,500,500,50,100,50,500,500,50,200,500,200,100,100,100,500,50,50,100,100,100,50,500,500,50,50,50,200,100,500,200,100,200,100,500,500,200,500,50,200,500,50,200,100,50,500,200,500,100,50,500,50,50,200,200,100,500,200,100,500,100,200,50,50,50,100,200,100,500,200,100,500,50,200,200,200,200,500"
        # Node 18 random traffic
dtnsim.node[18].app.enable = true
dtnsim.node[18].app.bundlesNumber = "1,1,1,1,1,1,1,1,1,1,1,1,1,1,1,1,1,1,1,1,1,1,1,1,1,1,1,1,1,1,1,1,1,1,1,1,1,1,1,1,1,1,1,1,1,1,1,1,1,1,1,1,1,1,1,1,1,1,1,1,1,1,1,1,1,1,1,1,1,1,1,1,1,1,1,1,1,1,1,1,1,1,1,1,1,1,1,1,1,1,1,1,1,1,1,1,1,1,1,1"
dtnsim.node[18].app.start = "17,20,12,7,16,20,10,15,2,1,8,3,20,1,18,18,12,2,10,4,8,13,11,20,17,19,5,4,9,12,16,18,20,13,13,17,12,19,6,2,7,1,17,16,17,5,9,3,13,5,10,15,8,14,13,13,14,3,8,18,7,13,18,3,5,11,2,7,3,17,16,4,13,2,2,9,11,10,1,7,1,12,15,12,4,9,16,15,18,2,10,3,11,4,10,8,5,8,11,14"
dtnsim.node[18].app.destinationEid = "72,91,177,97,42,219,81,45,125,48,182,61,62,28,50,166,211,153,72,171,202,176,61,150,66,228,234,39,214,202,130,25,74,72,28,208,26,231,162,186,81,40,89,160,234,57,218,70,232,171,14,188,17,3,104,219,148,132,88,128,119,15,45,78,121,76,83,188,229,65,212,63,167,38,94,120,130,109,117,216,108,115,95,159,225,189,98,13,201,201,161,130,143,112,165,6,126,138,109,238"
dtnsim.node[18].app.size = "50,100,100,50,200,200,50,500,50,500,200,50,50,100,200,100,500,50,500,100,500,500,50,200,100,200,200,200,50,100,100,500,50,200,50,200,100,50,50,50,200,50,500,500,500,500,100,50,50,50,100,50,100,100,200,100,100,500,100,100,50,500,500,100,500,200,100,100,200,200,100,100,100,200,50,500,50,200,100,200,200,200,100,500,100,200,100,50,100,200,200,100,200,500,50,50,50,500,100,50"
        # Node 19 random traffic
dtnsim.node[19].app.enable = true
dtnsim.node[19].app.bundlesNumber = "1,1,1,1,1,1,1,1,1,1,1,1,1,1,1,1,1,1,1,1,1,1,1,1,1,1,1,1,1,1,1,1,1,1,1,1,1,1,1,1,1,1,1,1,1,1,1,1,1,1,1,1,1,1,1,1,1,1,1,1,1,1,1,1,1,1,1,1,1,1,1,1,1,1,1,1,1,1,1,1,1,1,1,1,1,1,1,1,1,1,1,1,1,1,1,1,1,1,1,1"
dtnsim.node[19].app.start = "13,16,11,10,9,17,6,13,12,6,5,1,11,14,8,12,1,10,14,4,18,8,4,15,14,11,1,11,7,13,20,3,2,11,20,15,12,14,5,20,16,6,13,13,19,10,19,19,15,10,1,10,10,20,19,3,20,7,10,17,15,15,3,6,14,19,15,2,1,14,6,14,12,11,6,14,17,8,9,18,17,17,3,3,16,16,8,7,19,14,7,11,18,10,4,7,9,12,16,15"
dtnsim.node[19].app.destinationEid = "167,50,192,39,150,100,84,84,235,96,207,223,18,61,67,13,153,208,39,68,176,119,21,190,186,208,117,231,93,194,31,107,201,80,180,206,179,237,220,102,181,27,220,119,163,6,15,88,120,92,26,138,91,80,134,198,99,3,182,192,189,119,79,77,192,113,68,218,208,11,7,177,171,28,153,47,145,108,92,163,59,173,208,224,139,199,77,102,2,154,128,94,134,38,40,214,42,30,87,27"
dtnsim.node[19].app.size = "100,100,500,200,100,200,50,100,500,50,200,100,500,500,500,50,500,50,50,100,500,200,200,200,100,50,200,500,50,200,200,50,100,500,50,100,200,50,100,200,50,100,500,100,500,100,200,100,200,50,200,200,50,200,50,500,50,100,50,100,50,200,50,50,50,200,50,100,200,100,200,50,100,200,100,200,100,50,200,500,50,100,50,100,500,500,50,100,200,500,50,200,500,500,50,50,50,200,500,200"
        # Node 20 random traffic
dtnsim.node[20].app.enable = true
dtnsim.node[20].app.bundlesNumber = "1,1,1,1,1,1,1,1,1,1,1,1,1,1,1,1,1,1,1,1,1,1,1,1,1,1,1,1,1,1,1,1,1,1,1,1,1,1,1,1,1,1,1,1,1,1,1,1,1,1,1,1,1,1,1,1,1,1,1,1,1,1,1,1,1,1,1,1,1,1,1,1,1,1,1,1,1,1,1,1,1,1,1,1,1,1,1,1,1,1,1,1,1,1,1,1,1,1,1,1"
dtnsim.node[20].app.start = "2,2,3,1,2,9,9,3,20,13,6,6,17,18,13,12,8,1,4,19,10,14,12,12,16,1,17,9,19,15,13,2,12,18,8,2,8,15,16,2,20,17,14,8,6,2,12,10,5,12,4,7,3,1,7,18,16,1,17,18,6,7,3,4,19,14,1,12,20,16,10,12,18,17,11,5,16,4,18,19,5,3,5,11,18,16,10,12,19,19,13,7,6,6,19,12,16,14,16,5"
dtnsim.node[20].app.destinationEid = "160,140,86,106,65,53,221,184,4,134,8,222,225,133,53,164,5,195,102,196,96,41,32,179,238,6,123,178,46,96,133,180,233,42,219,180,37,22,85,201,39,190,7,187,7,185,167,157,24,159,220,134,31,123,50,184,100,44,172,161,180,48,74,37,127,211,222,179,12,89,213,137,210,159,3,216,75,21,36,155,56,117,60,108,147,161,35,13,110,99,179,51,232,68,96,194,182,169,65,131"
dtnsim.node[20].app.size = "50,50,50,100,100,200,200,50,500,200,50,50,50,500,200,100,500,500,200,500,100,50,500,200,200,500,500,100,200,50,200,500,200,200,50,500,100,50,100,100,100,100,50,100,50,50,50,200,50,500,500,100,500,50,500,100,500,500,200,100,100,100,500,100,200,200,100,50,500,100,50,100,100,200,100,500,200,500,100,50,200,50,100,500,50,200,200,200,500,50,50,100,200,100,50,200,500,50,100,200"
        # Node 21 random traffic
dtnsim.node[21].app.enable = true
dtnsim.node[21].app.bundlesNumber = "1,1,1,1,1,1,1,1,1,1,1,1,1,1,1,1,1,1,1,1,1,1,1,1,1,1,1,1,1,1,1,1,1,1,1,1,1,1,1,1,1,1,1,1,1,1,1,1,1,1,1,1,1,1,1,1,1,1,1,1,1,1,1,1,1,1,1,1,1,1,1,1,1,1,1,1,1,1,1,1,1,1,1,1,1,1,1,1,1,1,1,1,1,1,1,1,1,1,1,1"
dtnsim.node[21].app.start = "3,17,6,6,19,1,12,20,1,19,10,9,1,3,15,4,12,13,10,9,14,10,9,3,12,10,5,16,6,17,12,19,17,20,10,5,15,12,8,4,6,1,13,17,2,4,10,5,1,12,10,9,12,9,17,17,10,9,11,15,9,3,10,17,13,1,10,19,10,2,18,5,16,8,2,4,14,3,3,6,4,14,18,6,16,18,2,2,7,9,14,13,20,6,19,13,8,19,8,14"
dtnsim.node[21].app.destinationEid = "228,162,170,105,39,74,89,112,232,206,135,26,66,216,85,194,238,193,16,16,155,149,163,85,7,43,130,72,42,82,27,96,44,79,205,199,45,199,166,158,121,90,108,86,153,148,198,198,173,168,19,175,146,114,38,199,93,8,113,99,175,4,200,145,166,49,20,239,92,10,144,27,69,189,55,238,153,131,71,31,174,91,31,96,52,63,95,34,184,188,118,148,233,135,172,11,71,2,68,208"
dtnsim.node[21].app.size = "50,100,200,500,50,50,500,100,50,100,100,50,500,500,50,200,100,200,100,50,200,200,500,50,100,100,100,100,200,200,100,200,50,500,100,200,100,100,500,200,50,50,50,200,100,50,100,100,200,200,500,200,500,200,200,500,100,200,50,100,500,100,500,100,100,200,50,500,100,200,100,100,500,200,50,50,50,500,500,100,500,100,100,500,200,100,100,200,500,500,100,500,100,100,200,500,100,100,50,100"
        # Node 22 random traffic
dtnsim.node[22].app.enable = true