[General]
network = src.dtnsim										
repeat = 1
allow-object-stealing-on-deletion = true

# Simulation end time
sim-time-limit = 84600s

# Nodes quantity (identifiers (EiDs) matches their index, EiD=0 is ignored)			
dtnsim.nodesNumber = 240
dtnsim.node[*].icon = "satellite"

# Nodes's failure rates
dtnsim.node[*].fault.enable = true
dtnsim.node[*].fault.meanTTF = 90s
dtnsim.node[*].fault.meanTTR = 10s

# Mobility
dtnsim.node[*].hasMobility = true
dtnsim.node[*].norad.satIndex = parentIndex()
dtnsim.node[*].norad.satName = "sat"
**.updateInterval = 20s
**.numOfSats = 240
**.satPerPlane = 12
**.altitude = 540
**.planes = 20
**.phaseOffset = 11

dtnsim.node[*].dtn.routing = "antop"
dtnsim.node[*].dtn.printRoutingDebug = true

# --- Random Traffic Configuration ---
# Node 1 random traffic
dtnsim.node[1].app.enable = true
dtnsim.node[1].app.bundlesNumber = "6,19,10,4,4,4,14,20,2,11,5,1"
dtnsim.node[1].app.start = "34,68,70,51,94,51,35,15,66,62,33,71"
dtnsim.node[1].app.destinationEid = "134,70,70,154,171,216,83,117,233,40,118,137"
dtnsim.node[1].app.size = "500,200,500,100,50,50,200,100,50,500,50,500"
# Node 2 random traffic
dtnsim.node[2].app.enable = true
dtnsim.node[2].app.bundlesNumber = "18,25,6,2,2,10,12,13,6,3,3"
dtnsim.node[2].app.start = "86,68,21,22,70,12,67,74,75,66,73"
dtnsim.node[2].app.destinationEid = "239,199,225,18,81,189,118,53,200,178,215"
dtnsim.node[2].app.size = "50,200,50,50,100,500,100,100,100,50,100"
# Node 3 random traffic
dtnsim.node[3].app.enable = true
dtnsim.node[3].app.bundlesNumber = "17,21,21,3,8,23,7"
dtnsim.node[3].app.start = "71,62,87,12,48,8,95"
dtnsim.node[3].app.destinationEid = "98,54,29,58,13,23,130"
dtnsim.node[3].app.size = "100,100,50,200,50,50,50"
# Node 4 random traffic
dtnsim.node[4].app.enable = true
dtnsim.node[4].app.bundlesNumber = "24,8,12,20,2,5,25,1,2,1"
dtnsim.node[4].app.start = "40,90,73,23,6,13,42,44,12,77"
dtnsim.node[4].app.destinationEid = "165,109,28,104,147,173,53,7,100,215"
dtnsim.node[4].app.size = "200,100,50,100,500,50,500,500,50,200"
# Node 5 random traffic
dtnsim.node[5].app.enable = true
dtnsim.node[5].app.bundlesNumber = "10,18,4,7,19,13,25,3,1"
dtnsim.node[5].app.start = "89,96,32,93,31,71,94,16,53"
dtnsim.node[5].app.destinationEid = "129,47,43,154,45,213,75,151,231"
dtnsim.node[5].app.size = "100,50,200,100,50,100,50,200,200"
# Node 6 random traffic
dtnsim.node[6].app.enable = true
dtnsim.node[6].app.bundlesNumber = "25,22,2,23,25,1,2"
dtnsim.node[6].app.start = "60,23,61,78,3,27,36"
dtnsim.node[6].app.destinationEid = "57,54,166,41,216,133,223"
dtnsim.node[6].app.size = "200,500,100,100,50,200,200"
# Node 7 random traffic
dtnsim.node[7].app.enable = true
dtnsim.node[7].app.bundlesNumber = "23,13,16,12,23,1,5,7"
dtnsim.node[7].app.start = "21,73,74,44,15,5,61,7"
dtnsim.node[7].app.destinationEid = "111,109,185,24,165,69,66,147"
dtnsim.node[7].app.size = "500,100,50,50,200,200,500,200"
# Node 8 random traffic
dtnsim.node[8].app.enable = true
dtnsim.node[8].app.bundlesNumber = "4,21,25,5,15,3,3,14,10"
dtnsim.node[8].app.start = "41,1,68,53,21,70,36,35,91"
dtnsim.node[8].app.destinationEid = "54,77,104,236,225,14,85,70,174"
dtnsim.node[8].app.size = "50,200,500,100,200,500,200,50,200"
# Node 9 random traffic
dtnsim.node[9].app.enable = true
dtnsim.node[9].app.bundlesNumber = "15,19,16,14,8,4,12,4,1,7"
dtnsim.node[9].app.start = "98,28,10,63,12,12,29,72,36,14"
dtnsim.node[9].app.destinationEid = "24,18,12,87,128,11,100,46,178,64"
dtnsim.node[9].app.size = "50,100,100,100,50,50,100,100,500,500"
# Node 10 random traffic
dtnsim.node[10].app.enable = true
dtnsim.node[10].app.bundlesNumber = "18,3,8,22,8,24,4,6,5,1,1"
dtnsim.node[10].app.start = "13,80,89,6,29,61,40,18,82,23,44"
dtnsim.node[10].app.destinationEid = "184,142,205,116,141,60,22,37,135,215,230"
dtnsim.node[10].app.size = "500,100,50,50,200,100,200,50,100,500,200"
# Node 11 random traffic
dtnsim.node[11].app.enable = true
dtnsim.node[11].app.bundlesNumber = "14,19,1,7,5,24,12,10,5,1,2"
dtnsim.node[11].app.start = "34,61,81,22,77,37,53,26,81,92,82"
dtnsim.node[11].app.destinationEid = "150,24,79,45,232,169,149,35,37,212,81"
dtnsim.node[11].app.size = "100,200,100,50,200,200,50,50,100,200,500"
# Node 12 random traffic
dtnsim.node[12].app.enable = true
dtnsim.node[12].app.bundlesNumber = "15,16,6,14,10,14,24,1"
dtnsim.node[12].app.start = "76,54,68,48,98,93,68,30"
dtnsim.node[12].app.destinationEid = "151,235,86,151,178,198,30,178"
dtnsim.node[12].app.size = "50,500,50,200,200,500,50,100"
# Node 13 random traffic
dtnsim.node[13].app.enable = true
dtnsim.node[13].app.bundlesNumber = "19,22,20,7,9,15,7,1"
dtnsim.node[13].app.start = "79,63,43,90,37,100,1,21"
dtnsim.node[13].app.destinationEid = "155,185,41,64,38,3,120,67"
dtnsim.node[13].app.size = "100,200,100,100,50,200,200,50"
# Node 14 random traffic
dtnsim.node[14].app.enable = true
dtnsim.node[14].app.bundlesNumber = "24,21,20,10,3,15,2,3,2"
dtnsim.node[14].app.start = "53,26,38,84,75,19,48,49,99"
dtnsim.node[14].app.destinationEid = "41,47,48,118,22,154,215,96,134"
dtnsim.node[14].app.size = "50,200,50,50,500,500,500,500,50"
# Node 15 random traffic
dtnsim.node[15].app.enable = true
dtnsim.node[15].app.bundlesNumber = "23,23,11,8,2,13,10,5,4,1"
dtnsim.node[15].app.start = "31,21,56,72,32,83,33,36,91,19"
dtnsim.node[15].app.destinationEid = "106,88,180,81,37,138,59,171,122,122"
dtnsim.node[15].app.size = "100,200,100,50,200,200,50,100,200,200"
# Node 16 random traffic
dtnsim.node[16].app.enable = true
dtnsim.node[16].app.bundlesNumber = "1,1,7,14,24,18,7,4,23,1"
dtnsim.node[16].app.start = "87,12,15,83,30,100,96,50,67,63"
dtnsim.node[16].app.destinationEid = "30,148,120,10,102,111,85,185,83,152"
dtnsim.node[16].app.size = "50,100,100,100,50,500,100,100,50,100"
# Node 17 random traffic
dtnsim.node[17].app.enable = true
dtnsim.node[17].app.bundlesNumber = "12,6,2,14,7,18,9,5,16,2,4,5"
dtnsim.node[17].app.start = "24,92,43,87,58,51,23,59,79,40,54,76"
dtnsim.node[17].app.destinationEid = "227,48,112,240,53,162,198,52,126,73,112,126"
dtnsim.node[17].app.size = "50,100,500,500,500,50,200,200,100,50,50,50"
# Node 18 random traffic
dtnsim.node[18].app.enable = true
dtnsim.node[18].app.bundlesNumber = "23,17,8,21,22,1,3,1,4"
dtnsim.node[18].app.start = "22,70,13,71,28,10,38,7,89"
dtnsim.node[18].app.destinationEid = "134,83,6,20,152,5,19,189,177"
dtnsim.node[18].app.size = "100,200,500,100,50,200,500,50,500"
# Node 19 random traffic
dtnsim.node[19].app.enable = true
dtnsim.node[19].app.bundlesNumber = "22,13,13,18,12,21,1"
dtnsim.node[19].app.start = "83,97,3,59,59,87,83"
dtnsim.node[19].app.destinationEid = "92,151,50,149,86,181,70"
dtnsim.node[19].app.size = "200,500,200,500,100,100,100"
# Node 20 random traffic
dtnsim.node[20].app.enable = true
dtnsim.node[20].app.bundlesNumber = "3,7,2,17,24,5,4,21,1,5,5,3,2,1"
dtnsim.node[20].app.start = "27,6,12,90,37,18,50,90,43,75,17,66,31,32"
dtnsim.node[20].app.destinationEid = "56,224,200,126,56,233,210,143,218,140,170,89,229,94"
dtnsim.node[20].app.size = "100,500,500,50,500,200,100,50,200,100,50,100,100,200"
# Node 21 random traffic
dtnsim.node[21].app.enable = true
dtnsim.node[21].app.bundlesNumber = "18,12,4,17,1,14,14,2,4,14"
dtnsim.node[21].app.start = "93,29,66,29,59,49,68,83,96,4"
dtnsim.node[21].app.destinationEid = "199,107,50,204,79,98,107,215,191,142"
dtnsim.node[21].app.size = "500,200,50,100,200,500,50,200,100,500"
# Node 22 random traffic
dtnsim.node[22].app.enable = true
dtnsim.node[22].app.bundlesNumber = "1,21,1,5,5,6,7,3,24,16,3,5,3"
dtnsim.node[22].app.start = "42,34,61,54,25,37,11,21,67,48,52,70,11"
dtnsim.node[22].app.destinationEid = "199,228,41,73,148,72,81,73,34,37,67,206,95"
dtnsim.node[22].app.size = "500,200,50,200,100,50,50,200,100,100,50,500,50"
# Node 23 random traffic
dtnsim.node[23].app.enable = true
dtnsim.node[23].app.bundlesNumber = "19,17,14,1,16,8,17,5,2,1"
dtnsim.node[23].app.start = "80,41,98,2,94,30,33,48,75,68"
dtnsim.node[23].app.destinationEid = "234,92,226,239,57,224,87,57,17,142"
dtnsim.node[23].app.size = "100,100,200,200,100,200,200,100,50,500"
# Node 24 random traffic
dtnsim.node[24].app.enable = true
dtnsim.node[24].app.bundlesNumber = "14,6,15,4,8,24,5,18,3,3"
dtnsim.node[24].app.start = "51,94,85,36,11,60,40,18,9,59"
dtnsim.node[24].app.destinationEid = "55,141,31,190,217,138,163,19,199,77"
dtnsim.node[24].app.size = "50,100,100,500,200,100,50,200,200,500"
# Node 25 random traffic
dtnsim.node[25].app.enable = true
dtnsim.node[25].app.bundlesNumber = "7,9,1,6,13,13,1,22,12,9,5,1,1"
dtnsim.node[25].app.start = "3,72,41,48,4,49,20,96,47,34,78,89,37"
dtnsim.node[25].app.destinationEid = "135,216,64,224,210,177,204,34,168,23,146,168,139"
dtnsim.node[25].app.size = "500,100,100,100,500,50,100,100,100,200,50,50,100"
# Node 26 random traffic
dtnsim.node[26].app.enable = true
dtnsim.node[26].app.bundlesNumber = "9,23,16,10,23,15,1,2,1"
dtnsim.node[26].app.start = "52,68,64,74,54,48,68,93,81"
dtnsim.node[26].app.destinationEid = "147,159,224,72,220,157,19,204,49"
dtnsim.node[26].app.size = "50,50,200,50,50,200,200,200,500"
# Node 27 random traffic
dtnsim.node[27].app.enable = true
dtnsim.node[27].app.bundlesNumber = "11,10,17,4,2,17,15,5,6,5,3,2,3"
dtnsim.node[27].app.start = "36,55,94,24,3,77,27,32,26,90,48,34,59"
dtnsim.node[27].app.destinationEid = "40,96,169,80,87,176,111,150,13,182,51,209,118"
dtnsim.node[27].app.size = "200,100,100,500,100,500,200,200,50,200,50,200,50"
# Node 28 random traffic
dtnsim.node[28].app.enable = true
dtnsim.node[28].app.bundlesNumber = "6,25,19,7,9,7,8,12,5,2"
dtnsim.node[28].app.start = "8,27,60,50,65,17,32,66,34,86"
dtnsim.node[28].app.destinationEid = "92,66,15,178,178,188,40,40,75,175"
dtnsim.node[28].app.size = "50,200,200,200,100,200,50,50,200,100"
# Node 29 random traffic
dtnsim.node[29].app.enable = true
dtnsim.node[29].app.bundlesNumber = "13,16,23,20,1,14,4,3,3,1,2"
dtnsim.node[29].app.start = "68,41,87,45,53,97,90,60,61,26,46"
dtnsim.node[29].app.destinationEid = "5,161,107,90,82,58,27,226,49,214,109"
dtnsim.node[29].app.size = "50,500,500,50,500,200,200,100,200,500,100"
# Node 30 random traffic
dtnsim.node[30].app.enable = true
dtnsim.node[30].app.bundlesNumber = "14,23,6,24,2,3,20,6,1,1"
dtnsim.node[30].app.start = "7,82,76,82,81,43,65,16,19,58"
dtnsim.node[30].app.destinationEid = "98,119,76,140,38,68,139,68,188,11"
dtnsim.node[30].app.size = "50,200,100,200,100,100,50,500,50,500"
# Node 31 random traffic
dtnsim.node[31].app.enable = true
dtnsim.node[31].app.bundlesNumber = "13,16,4,4,21,21,11,4,6"
dtnsim.node[31].app.start = "48,90,77,77,60,92,5,39,42"
dtnsim.node[31].app.destinationEid = "189,229,228,4,65,116,227,83,1"
dtnsim.node[31].app.size = "100,100,50,50,200,200,500,100,200"
# Node 32 random traffic
dtnsim.node[32].app.enable = true
dtnsim.node[32].app.bundlesNumber = "7,9,15,17,17,9,6,15,2,3"
dtnsim.node[32].app.start = "43,83,33,91,7,49,93,50,81,82"
dtnsim.node[32].app.destinationEid = "117,166,5,96,207,37,167,133,9,146"
dtnsim.node[32].app.size = "500,500,200,100,500,50,50,50,200,500"
# Node 33 random traffic
dtnsim.node[33].app.enable = true
dtnsim.node[33].app.bundlesNumber = "4,3,8,4,4,16,1,5,25,25,3,1,1"
dtnsim.node[33].app.start = "88,6,96,66,1,38,47,57,52,90,97,63,33"
dtnsim.node[33].app.destinationEid = "192,4,141,95,76,87,117,129,34,101,203,210,132"
dtnsim.node[33].app.size = "500,500,50,50,100,200,50,500,100,500,200,100,100"
# Node 34 random traffic
dtnsim.node[34].app.enable = true
dtnsim.node[34].app.bundlesNumber = "7,10,22,7,24,15,8,7"
dtnsim.node[34].app.start = "83,99,68,70,44,37,10,74"
dtnsim.node[34].app.destinationEid = "159,38,128,46,172,18,117,238"
dtnsim.node[34].app.size = "200,200,50,50,200,200,500,500"
# Node 35 random traffic
dtnsim.node[35].app.enable = true
dtnsim.node[35].app.bundlesNumber = "13,24,4,6,15,19,3,16"
dtnsim.node[35].app.start = "30,49,82,99,4,32,9,65"
dtnsim.node[35].app.destinationEid = "131,88,128,146,198,173,169,77"
dtnsim.node[35].app.size = "500,200,200,500,500,100,500,100"
# Node 36 random traffic
dtnsim.node[36].app.enable = true
dtnsim.node[36].app.bundlesNumber = "23,13,6,23,2,1,11,18,2,1"
dtnsim.node[36].app.start = "95,86,94,24,8,80,37,83,34,72"
dtnsim.node[36].app.destinationEid = "19,109,129,117,71,179,129,81,65,17"
dtnsim.node[36].app.size = "500,200,200,500,200,50,50,500,100,100"
# Node 37 random traffic
dtnsim.node[37].app.enable = true
dtnsim.node[37].app.bundlesNumber = "1,13,19,14,25,7,9,3,4,1,2,2"
dtnsim.node[37].app.start = "61,24,88,67,68,45,88,35,92,65,63,4"
dtnsim.node[37].app.destinationEid = "181,89,118,97,105,161,46,69,231,139,57,235"
dtnsim.node[37].app.size = "100,100,200,200,100,500,50,50,100,50,500,200"
# Node 38 random traffic
dtnsim.node[38].app.enable = true
dtnsim.node[38].app.bundlesNumber = "19,8,25,2,20,17,1,2,6"
dtnsim.node[38].app.start = "10,15,58,12,47,48,7,41,94"
dtnsim.node[38].app.destinationEid = "94,162,50,239,1,11,137,85,87"
dtnsim.node[38].app.size = "100,500,50,100,50,50,50,200,200"
# Node 39 random traffic
dtnsim.node[39].app.enable = true
dtnsim.node[39].app.bundlesNumber = "21,22,10,14,19,3,9,1,1"
dtnsim.node[39].app.start = "14,19,2,53,86,46,35,63,96"
dtnsim.node[39].app.destinationEid = "17,230,161,16,107,171,70,35,229"
dtnsim.node[39].app.size = "50,50,100,50,50,100,500,100,100"
# Node 40 random traffic
dtnsim.node[40].app.enable = true
dtnsim.node[40].app.bundlesNumber = "17,17,20,25,19,2"
dtnsim.node[40].app.start = "56,35,16,20,7,37"
dtnsim.node[40].app.destinationEid = "75,101,142,171,181,95"
dtnsim.node[40].app.size = "500,50,50,50,100,100"
# Node 41 random traffic
dtnsim.node[41].app.enable = true
dtnsim.node[41].app.bundlesNumber = "19,21,12,8,5,22,2,6,4,1"
dtnsim.node[41].app.start = "60,38,65,22,51,84,84,85,91,10"
dtnsim.node[41].app.destinationEid = "135,207,105,56,83,236,85,3,12,170"
dtnsim.node[41].app.size = "200,500,200,100,100,50,500,200,500,500"
# Node 42 random traffic
dtnsim.node[42].app.enable = true
dtnsim.node[42].app.bundlesNumber = "17,6,13,10,21,11,8,7,4,2,1"
dtnsim.node[42].app.start = "98,48,29,58,15,55,80,50,69,66,81"
dtnsim.node[42].app.destinationEid = "201,110,163,215,83,143,171,65,130,228,161"
dtnsim.node[42].app.size = "500,500,100,100,50,100,50,100,200,50,50"
# Node 43 random traffic
dtnsim.node[43].app.enable = true
dtnsim.node[43].app.bundlesNumber = "22,17,15,22,21,3"
dtnsim.node[43].app.start = "99,72,9,48,25,9"
dtnsim.node[43].app.destinationEid = "110,146,143,64,37,25"
dtnsim.node[43].app.size = "200,500,200,200,100,500"
# Node 44 random traffic
dtnsim.node[44].app.enable = true
dtnsim.node[44].app.bundlesNumber = "13,7,12,9,23,3,1,3,5,12,9,3"
dtnsim.node[44].app.start = "94,53,70,86,7,8,57,56,73,100,51,55"
dtnsim.node[44].app.destinationEid = "235,87,233,154,73,152,201,81,213,23,218,5"
dtnsim.node[44].app.size = "200,200,50,200,50,200,50,200,500,500,50,100"
# Node 45 random traffic
dtnsim.node[45].app.enable = true
dtnsim.node[45].app.bundlesNumber = "2,15,11,11,9,21,10,3,17,1"
dtnsim.node[45].app.start = "73,91,74,49,91,43,20,9,51,49"
dtnsim.node[45].app.destinationEid = "134,41,20,5,63,137,79,21,116,82"
dtnsim.node[45].app.size = "500,500,500,200,500,200,500,200,500,100"
# Node 46 random traffic
dtnsim.node[46].app.enable = true
dtnsim.node[46].app.bundlesNumber = "11,11,11,21,6,13,20,2,2,3"
dtnsim.node[46].app.start = "73,89,15,22,12,8,90,80,8,53"
dtnsim.node[46].app.destinationEid = "199,88,29,121,190,21,72,100,142,160"
dtnsim.node[46].app.size = "500,200,200,500,500,200,200,100,500,200"
# Node 47 random traffic
dtnsim.node[47].app.enable = true
dtnsim.node[47].app.bundlesNumber = "19,16,9,15,25,15,1"
dtnsim.node[47].app.start = "24,78,12,74,37,19,100"
dtnsim.node[47].app.destinationEid = "38,188,174,229,110,41,2"
dtnsim.node[47].app.size = "100,500,500,50,100,100,100"
# Node 48 random traffic
dtnsim.node[48].app.enable = true
dtnsim.node[48].app.bundlesNumber = "8,3,7,16,10,12,1,1,24,6,10,2"
dtnsim.node[48].app.start = "39,56,85,97,78,23,5,60,18,81,42,82"
dtnsim.node[48].app.destinationEid = "22,1,149,64,9,143,177,111,226,140,1,15"
dtnsim.node[48].app.size = "50,50,50,100,200,500,100,500,500,100,50,100"
# Node 49 random traffic
dtnsim.node[49].app.enable = true
dtnsim.node[49].app.bundlesNumber = "18,16,3,10,8,14,4,23,4"
dtnsim.node[49].app.start = "51,99,63,7,71,53,10,27,60"
dtnsim.node[49].app.destinationEid = "8,27,78,149,45,200,217,219,238"
dtnsim.node[49].app.size = "500,200,100,200,50,200,500,500,100"
# Node 50 random traffic
dtnsim.node[50].app.enable = true
dtnsim.node[50].app.bundlesNumber = "14,23,15,23,23,2"
dtnsim.node[50].app.start = "2,69,13,46,96,28"
dtnsim.node[50].app.destinationEid = "125,179,227,79,40,225"
dtnsim.node[50].app.size = "100,100,500,100,100,200"
# Node 51 random traffic
dtnsim.node[51].app.enable = true
dtnsim.node[51].app.bundlesNumber = "15,14,3,2,11,18,11,5,16,1,1,2,1"
dtnsim.node[51].app.start = "43,68,9,57,55,84,27,24,33,98,82,74,48"
dtnsim.node[51].app.destinationEid = "141,28,141,126,214,2,222,216,150,25,238,134,21"
dtnsim.node[51].app.size = "500,50,500,200,50,500,100,50,500,500,200,200,50"
# Node 52 random traffic
dtnsim.node[52].app.enable = true
dtnsim.node[52].app.bundlesNumber = "13,7,7,5,20,9,13,16,3,1,6"
dtnsim.node[52].app.start = "16,94,44,36,4,100,24,41,79,54,70"
dtnsim.node[52].app.destinationEid = "18,96,57,174,32,87,159,98,223,77,189"
dtnsim.node[52].app.size = "200,100,50,100,500,100,200,200,200,100,50"
# Node 53 random traffic
dtnsim.node[53].app.enable = true
dtnsim.node[53].app.bundlesNumber = "4,10,15,3,18,20,20,5,4,1"
dtnsim.node[53].app.start = "81,9,51,52,59,19,93,77,5,97"
dtnsim.node[53].app.destinationEid = "231,72,211,183,82,226,223,211,152,32"
dtnsim.node[53].app.size = "500,100,50,50,500,50,100,200,100,200"
# Node 54 random traffic
dtnsim.node[54].app.enable = true
dtnsim.node[54].app.bundlesNumber = "10,14,9,17,6,3,7,16,11,1,6"
dtnsim.node[54].app.start = "63,4,81,31,52,22,11,10,5,59,16"
dtnsim.node[54].app.destinationEid = "118,160,208,134,228,171,190,98,164,33,175"
dtnsim.node[54].app.size = "500,50,100,500,50,100,500,50,500,100,100"
# Node 55 random traffic
dtnsim.node[55].app.enable = true
dtnsim.node[55].app.bundlesNumber = "15,6,4,24,6,18,4,3,5,9,6"
dtnsim.node[55].app.start = "43,21,6,72,52,66,5,72,92,1,21"
dtnsim.node[55].app.destinationEid = "141,33,155,40,46,140,179,161,47,108,170"
dtnsim.node[55].app.size = "100,50,100,50,200,200,100,200,200,500,200"
# Node 56 random traffic
dtnsim.node[56].app.enable = true
dtnsim.node[56].app.bundlesNumber = "24,19,9,7,24,7,7,3"
dtnsim.node[56].app.start = "60,17,7,42,17,97,28,72"
dtnsim.node[56].app.destinationEid = "140,201,176,140,225,148,87,135"
dtnsim.node[56].app.size = "100,50,500,200,500,100,100,500"
# Node 57 random traffic
dtnsim.node[57].app.enable = true
dtnsim.node[57].app.bundlesNumber = "13,20,9,12,21,21,2,1,1"
dtnsim.node[57].app.start = "65,43,23,56,5,100,23,23,49"
dtnsim.node[57].app.destinationEid = "103,157,227,127,160,133,235,38,92"
dtnsim.node[57].app.size = "50,100,100,200,50,200,200,100,200"
# Node 58 random traffic
dtnsim.node[58].app.enable = true
dtnsim.node[58].app.bundlesNumber = "18,25,21,21,3,11,1"
dtnsim.node[58].app.start = "36,32,95,94,42,62,67"
dtnsim.node[58].app.destinationEid = "76,234,227,121,3,115,96"
dtnsim.node[58].app.size = "500,200,100,500,500,200,100"
# Node 59 random traffic
dtnsim.node[59].app.enable = true
dtnsim.node[59].app.bundlesNumber = "22,12,6,6,13,16,3,8,8,4,1,1"
dtnsim.node[59].app.start = "38,24,38,65,66,60,88,15,94,35,64,15"
dtnsim.node[59].app.destinationEid = "126,47,191,27,206,28,120,42,238,147,69,4"
dtnsim.node[59].app.size = "200,500,500,100,200,50,500,50,100,50,100,200"
# Node 60 random traffic
dtnsim.node[60].app.enable = true
dtnsim.node[60].app.bundlesNumber = "2,13,12,7,22,9,21,1,1,11,1"
dtnsim.node[60].app.start = "73,63,72,3,84,52,9,82,47,33,10"
dtnsim.node[60].app.destinationEid = "171,94,192,160,200,170,154,167,61,10,79"
dtnsim.node[60].app.size = "500,100,500,50,200,500,50,200,500,200,200"
# Node 61 random traffic
dtnsim.node[61].app.enable = true
dtnsim.node[61].app.bundlesNumber = "4,23,3,12,11,9,2,22,9,4,1"
dtnsim.node[61].app.start = "47,45,10,45,78,77,92,86,85,27,87"
dtnsim.node[61].app.destinationEid = "221,149,235,122,105,169,30,51,42,147,225"
dtnsim.node[61].app.size = "500,200,500,500,100,50,50,200,500,200,100"
# Node 62 random traffic
dtnsim.node[62].app.enable = true
dtnsim.node[62].app.bundlesNumber = "9,24,13,23,23,1,1,4,2"
dtnsim.node[62].app.start = "96,50,83,42,32,47,68,71,17"
dtnsim.node[62].app.destinationEid = "76,231,158,88,172,72,17,28,170"
dtnsim.node[62].app.size = "200,50,500,100,100,200,200,50,100"
# Node 63 random traffic
dtnsim.node[63].app.enable = true
dtnsim.node[63].app.bundlesNumber = "8,11,9,7,10,19,5,2,14,1,13,1"
dtnsim.node[63].app.start = "82,8,68,26,29,86,92,84,48,41,80,14"
dtnsim.node[63].app.destinationEid = "24,4,13,3,91,189,52,192,25,195,36,3"
dtnsim.node[63].app.size = "50,50,500,500,100,50,200,50,200,100,200,500"
# Node 64 random traffic
dtnsim.node[64].app.enable = true
dtnsim.node[64].app.bundlesNumber = "17,4,18,15,25,5,1,5,5,2,2,1"
dtnsim.node[64].app.start = "7,75,96,37,59,66,36,78,90,19,53,3"
dtnsim.node[64].app.destinationEid = "220,202,164,56,52,10,150,231,85,226,108,9"
dtnsim.node[64].app.size = "500,200,50,50,50,500,50,50,50,50,500,500"
# Node 65 random traffic
dtnsim.node[65].app.enable = true
dtnsim.node[65].app.bundlesNumber = "17,18,5,2,10,21,22,3,1,1"
dtnsim.node[65].app.start = "8,16,52,6,62,24,68,59,5,23"
dtnsim.node[65].app.destinationEid = "144,145,28,39,33,41,215,4,105,138"
dtnsim.node[65].app.size = "100,500,50,50,50,200,200,50,50,50"
# Node 66 random traffic
dtnsim.node[66].app.enable = true
dtnsim.node[66].app.bundlesNumber = "15,1,12,11,11,2,5,13,10,7,8,2,2,1"
dtnsim.node[66].app.start = "31,6,91,99,16,94,93,48,55,14,38,20,17,29"
dtnsim.node[66].app.destinationEid = "35,52,91,25,146,158,193,55,214,138,138,191,68,150"
dtnsim.node[66].app.size = "500,50,200,100,50,500,200,200,100,500,200,200,100,500"
# Node 67 random traffic
dtnsim.node[67].app.enable = true
dtnsim.node[67].app.bundlesNumber = "7,10,24,11,24,4,5,5,9,1"
dtnsim.node[67].app.start = "58,91,62,90,5,58,25,44,56,58"
dtnsim.node[67].app.destinationEid = "203,43,228,184,212,57,53,20,190,221"
dtnsim.node[67].app.size = "100,200,100,50,50,200,200,50,200,50"
# Node 68 random traffic
dtnsim.node[68].app.enable = true
dtnsim.node[68].app.bundlesNumber = "5,24,2,6,25,22,1,6,1,4,3,1"
dtnsim.node[68].app.start = "83,15,52,55,1,78,76,24,91,58,41,6"
dtnsim.node[68].app.destinationEid = "126,58,2,118,201,90,74,231,172,47,9,116"
dtnsim.node[68].app.size = "100,200,50,50,500,100,50,500,200,100,200,200"
# Node 69 random traffic
dtnsim.node[69].app.enable = true
dtnsim.node[69].app.bundlesNumber = "5,14,3,10,4,3,23,9,3,20,4,1,1"
dtnsim.node[69].app.start = "41,39,10,8,37,11,91,27,61,71,78,73,57"
dtnsim.node[69].app.destinationEid = "34,161,39,162,158,117,210,181,40,158,115,4,237"
dtnsim.node[69].app.size = "50,100,200,200,200,200,100,100,50,200,100,500,100"
# Node 70 random traffic
dtnsim.node[70].app.enable = true
dtnsim.node[70].app.bundlesNumber = "23,24,25,23,2,1,2"
dtnsim.node[70].app.start = "31,72,76,2,61,68,46"
dtnsim.node[70].app.destinationEid = "222,177,237,73,221,25,176"
dtnsim.node[70].app.size = "100,500,200,500,200,50,50"
# Node 71 random traffic
dtnsim.node[71].app.enable = true
dtnsim.node[71].app.bundlesNumber = "19,8,4,5,9,15,22,18"
dtnsim.node[71].app.start = "79,20,99,15,80,9,86,79"
dtnsim.node[71].app.destinationEid = "107,69,116,217,142,127,73,174"
dtnsim.node[71].app.size = "50,500,200,200,500,500,500,50"
# Node 72 random traffic
dtnsim.node[72].app.enable = true
dtnsim.node[72].app.bundlesNumber = "17,17,1,11,12,20,20,2"
dtnsim.node[72].app.start = "41,97,82,54,60,99,73,28"
dtnsim.node[72].app.destinationEid = "70,4,198,77,103,205,192,213"
dtnsim.node[72].app.size = "500,200,50,50,100,100,200,200"
# Node 73 random traffic
dtnsim.node[73].app.enable = true
dtnsim.node[73].app.bundlesNumber = "16,5,13,5,22,9,21,6,1,2"
dtnsim.node[73].app.start = "95,20,87,41,46,48,14,50,42,14"
dtnsim.node[73].app.destinationEid = "14,131,90,93,133,69,179,66,218,77"
dtnsim.node[73].app.size = "200,100,50,500,500,50,200,200,200,500"
# Node 74 random traffic
dtnsim.node[74].app.enable = true
dtnsim.node[74].app.bundlesNumber = "23,18,24,23,12"
dtnsim.node[74].app.start = "89,59,47,21,2"
dtnsim.node[74].app.destinationEid = "97,172,222,231,56"
dtnsim.node[74].app.size = "50,200,100,200,200"
# Node 75 random traffic
dtnsim.node[75].app.enable = true
dtnsim.node[75].app.bundlesNumber = "20,12,17,20,22,9"
dtnsim.node[75].app.start = "79,25,78,66,21,52"
dtnsim.node[75].app.destinationEid = "57,127,31,51,211,69"
dtnsim.node[75].app.size = "100,50,200,100,200,50"
# Node 76 random traffic
dtnsim.node[76].app.enable = true
dtnsim.node[76].app.bundlesNumber = "1,21,18,15,10,16,7,4,6,2"
dtnsim.node[76].app.start = "8,78,58,71,98,75,62,19,35,75"
dtnsim.node[76].app.destinationEid = "6,126,55,92,57,49,231,87,231,236"
dtnsim.node[76].app.size = "50,100,500,50,50,100,100,50,500,50"
# Node 77 random traffic
dtnsim.node[77].app.enable = true
dtnsim.node[77].app.bundlesNumber = "23,3,6,23,21,18,3,2,1"
dtnsim.node[77].app.start = "59,4,68,7,2,97,70,31,34"
dtnsim.node[77].app.destinationEid = "3,137,170,169,141,5,216,107,70"
dtnsim.node[77].app.size = "500,200,500,500,50,200,50,500,200"
# Node 78 random traffic
dtnsim.node[78].app.enable = true
dtnsim.node[78].app.bundlesNumber = "13,7,20,1,2,21,22,1,1,2,10"
dtnsim.node[78].app.start = "41,31,54,51,73,49,24,87,5,20,25"
dtnsim.node[78].app.destinationEid = "127,176,128,130,10,179,203,70,95,236,92"
dtnsim.node[78].app.size = "100,100,100,50,500,200,200,200,50,50,50"
# Node 79 random traffic
dtnsim.node[79].app.enable = true
dtnsim.node[79].app.bundlesNumber = "1,6,11,10,11,22,12,8,12,6,1"
dtnsim.node[79].app.start = "31,71,22,98,15,80,56,88,63,10,27"
dtnsim.node[79].app.destinationEid = "56,204,44,14,64,168,11,159,203,219,59"
dtnsim.node[79].app.size = "50,200,100,200,100,200,200,200,200,100,50"
# Node 80 random traffic
dtnsim.node[80].app.enable = true
dtnsim.node[80].app.bundlesNumber = "19,14,5,3,25,2,13,1,11,3,1,1,1,1"
dtnsim.node[80].app.start = "9,72,59,28,35,48,36,99,56,11,19,6,49,39"
dtnsim.node[80].app.destinationEid = "69,224,145,126,103,173,223,75,84,226,22,147,217,199"
dtnsim.node[80].app.size = "500,100,100,100,200,200,500,200,100,50,100,200,100,500"
# Node 81 random traffic
dtnsim.node[81].app.enable = true
dtnsim.node[81].app.bundlesNumber = "6,7,17,2,13,22,8,3,18,3,1"
dtnsim.node[81].app.start = "73,52,72,97,88,59,54,75,92,71,39"
dtnsim.node[81].app.destinationEid = "30,111,96,224,212,121,87,186,103,105,145"
dtnsim.node[81].app.size = "100,500,200,100,50,200,100,200,200,500,50"
# Node 82 random traffic
dtnsim.node[82].app.enable = true
dtnsim.node[82].app.bundlesNumber = "16,17,4,2,12,3,6,25,15"
dtnsim.node[82].app.start = "55,78,76,3,73,23,59,63,38"
dtnsim.node[82].app.destinationEid = "104,119,172,217,78,202,208,62,145"
dtnsim.node[82].app.size = "100,100,500,500,50,500,50,500,100"
# Node 83 random traffic
dtnsim.node[83].app.enable = true
dtnsim.node[83].app.bundlesNumber = "11,16,2,2,1,2,22,8,17,2,12,1,3,1"
dtnsim.node[83].app.start = "73,36,57,30,43,36,79,39,92,60,80,60,4,16"
dtnsim.node[83].app.destinationEid = "154,82,44,48,198,128,1,220,23,204,152,169,33,24"
dtnsim.node[83].app.size = "100,500,500,200,100,200,500,100,50,500,200,50,500,500"
# Node 84 random traffic
dtnsim.node[84].app.enable = true
dtnsim.node[84].app.bundlesNumber = "25,5,25,19,17,5,4"
dtnsim.node[84].app.start = "6,3,21,67,67,62,88"
dtnsim.node[84].app.destinationEid = "62,124,117,123,27,52,123"
dtnsim.node[84].app.size = "500,100,50,500,50,200,200"
# Node 85 random traffic
dtnsim.node[85].app.enable = true
dtnsim.node[85].app.bundlesNumber = "7,3,15,8,7,8,17,18,11,5,1"
dtnsim.node[85].app.start = "66,77,95,98,97,57,35,13,95,82,78"
dtnsim.node[85].app.destinationEid = "24,117,228,153,108,101,125,217,144,144,189"
dtnsim.node[85].app.size = "500,200,50,50,100,200,500,50,200,500,200"
# Node 86 random traffic
dtnsim.node[86].app.enable = true
dtnsim.node[86].app.bundlesNumber = "16,17,4,12,10,19,19,3"
dtnsim.node[86].app.start = "91,35,84,37,36,66,14,2"
dtnsim.node[86].app.destinationEid = "240,11,3,28,194,214,70,224"
dtnsim.node[86].app.size = "500,50,500,100,100,50,100,500"
# Node 87 random traffic
dtnsim.node[87].app.enable = true
dtnsim.node[87].app.bundlesNumber = "15,15,20,21,1,19,3,4,2"
dtnsim.node[87].app.start = "72,4,16,16,29,65,77,3,30"
dtnsim.node[87].app.destinationEid = "28,21,140,199,38,17,51,57,221"
dtnsim.node[87].app.size = "500,200,200,200,500,100,100,50,100"
# Node 88 random traffic
dtnsim.node[88].app.enable = true
dtnsim.node[88].app.bundlesNumber = "24,4,11,12,15,9,25"
dtnsim.node[88].app.start = "24,11,46,8,1,10,100"
dtnsim.node[88].app.destinationEid = "165,186,97,80,62,218,53"
dtnsim.node[88].app.size = "500,100,500,500,50,50,100"
# Node 89 random traffic
dtnsim.node[89].app.enable = true
dtnsim.node[89].app.bundlesNumber = "23,5,23,9,12,6,3,1,5,12,1"
dtnsim.node[89].app.start = "62,83,14,43,2,11,48,94,92,72,75"
dtnsim.node[89].app.destinationEid = "98,222,118,22,34,43,179,68,128,45,133"
dtnsim.node[89].app.size = "100,50,100,100,500,50,100,100,200,500,100"
# Node 90 random traffic
dtnsim.node[90].app.enable = true
dtnsim.node[90].app.bundlesNumber = "20,4,18,10,18,11,12,2,4,1"
dtnsim.node[90].app.start = "13,9,84,70,85,43,45,74,34,34"
dtnsim.node[90].app.destinationEid = "160,164,183,82,66,61,89,206,131,164"
dtnsim.node[90].app.size = "500,500,50,200,100,500,100,500,50,200"
# Node 91 random traffic
dtnsim.node[91].app.enable = true
dtnsim.node[91].app.bundlesNumber = "23,18,16,22,15,6"
dtnsim.node[91].app.start = "12,70,83,37,84,16"
dtnsim.node[91].app.destinationEid = "101,48,117,105,199,210"
dtnsim.node[91].app.size = "500,500,500,50,50,100"
# Node 92 random traffic
dtnsim.node[92].app.enable = true
dtnsim.node[92].app.bundlesNumber = "2,7,20,1,9,4,13,21,7,9,2,4,1"