[General]
network = src.dtnsim										
repeat = 1
allow-object-stealing-on-deletion = true

# Simulation end time
sim-time-limit = 84600s

# Nodes quantity (identifiers (EiDs) matches their index, EiD=0 is ignored)			
dtnsim.nodesNumber = 360
dtnsim.node[*].icon = "satellite"

# Nodes's failure rates
dtnsim.node[*].fault.enable = true
dtnsim.node[*].fault.meanTTF = 90s
dtnsim.node[*].fault.meanTTR = 10s

# Mobility
dtnsim.node[*].hasMobility = true
dtnsim.node[*].norad.satIndex = parentIndex()
dtnsim.node[*].norad.satName = "sat"
**.updateInterval = 20s
**.numOfSats = 360
**.satPerPlane = 18
**.altitude = 540
**.planes = 20
**.phaseOffset = 11

dtnsim.node[*].dtn.routing = "antop"
dtnsim.node[*].dtn.printRoutingDebug = true

# --- Random Traffic Configuration ---
# Node 1 random conversational traffic
dtnsim.node[1].app.enable = true
dtnsim.node[1].app.bundlesNumber = "3,2,5,5,3,5,5,2,5,3,4,5,1,5,2,3,4,4,2,5,5,1,4,2,3,3,5,5,3,5,3,3,2,3,4,3,2,3,2,4,3,5,1,4,4,2,3,2,1,3,2,2,2,5,5,3,4,5,3,5,1,3,1,5,4,1,2,1,5,1,3,1,3,2,5,5,5,3,5,3,1,4,3,5,4,4,3,2,2,3,4,3,2,5,4,5,3,5,5,2"
dtnsim.node[1].app.start = "18,8,15,47,78,98,90,42,46,53,66,20,47,20,48,73,24,54,78,72,96,27,20,94,63,96,60,1,91,69,8,91,33,85,83,5,85,96,96,19,62,42,64,61,46,38,44,61,58,62,14,95,69,63,37,21,34,17,24,30,97,29,9,2,99,85,35,62,75,58,60,28,31,71,53,25,14,42,64,6,76,29,27,96,18,30,45,21,31,35,39,78,47,92,55,76,51,68,30,87"
dtnsim.node[1].app.destinationEid = "2,2,2,2,2,2,2,2,2,2,2,2,2,2,2,2,2,2,2,2,2,2,2,2,2,2,2,2,2,2,2,2,2,2,2,2,2,2,2,2,2,2,2,2,2,2,2,2,2,2,2,2,2,2,2,2,2,2,2,2,2,2,2,2,2,2,2,2,2,2,2,2,2,2,2,2,2,2,2,2,2,2,2,2,2,2,2,2,2,2,2,2,2,2,2,2,2,2,2,2"
dtnsim.node[1].app.size = "50,500,200,200,50,200,200,200,500,100,100,200,500,50,200,50,500,500,50,500,50,200,100,500,100,200,200,100,50,50,200,50,100,50,200,500,50,200,200,200,200,500,100,200,500,500,500,50,100,200,50,500,200,500,100,50,500,50,200,50,50,500,200,200,500,200,50,200,50,500,100,500,200,500,100,50,200,500,500,200,100,100,100,50,100,100,50,50,50,200,500,50,200,50,100,100,200,200,200,100"
# Node 2 random conversational traffic
dtnsim.node[2].app.enable = true
dtnsim.node[2].app.bundlesNumber = "3,3,3,1,4,5,4,3,2,1,5,4,4,2,4,3,5,5,1,5,3,5,1,5,1,5,2,5,5,3,2,2,3,4,2,1,2,1,2,1,5,4,1,5,4,1,4,3,3,2,5,2,2,5,1,4,4,5,4,1,5,4,5,1,5,1,2,1,2,1,2,2,1,4,4,3,5,2,5,1,1,2,4,5,1,1,4,1,4,1,4,2,4,1,5,5,1,2,1,5"
dtnsim.node[2].app.start = "23,14,86,94,49,58,69,53,22,55,97,100,5,94,77,43,89,90,98,69,62,67,16,31,43,27,100,34,10,9,100,90,38,64,29,81,17,68,14,31,34,24,33,49,80,54,98,56,81,71,55,12,91,28,69,21,3,18,28,71,87,71,9,46,87,61,21,97,25,96,67,83,7,63,98,55,10,55,23,14,35,2,30,99,88,71,52,16,35,18,60,100,85,57,15,85,82,88,68,21"
dtnsim.node[2].app.destinationEid = "1,1,1,1,1,1,1,1,1,1,1,1,1,1,1,1,1,1,1,1,1,1,1,1,1,1,1,1,1,1,1,1,1,1,1,1,1,1,1,1,1,1,1,1,1,1,1,1,1,1,3,3,3,3,3,3,3,3,3,3,3,3,3,3,3,3,3,3,3,3,3,3,3,3,3,3,3,3,3,3,3,3,3,3,3,3,3,3,3,3,3,3,3,3,3,3,3,3,3,3"
dtnsim.node[2].app.size = "200,100,100,100,100,200,500,50,500,50,200,100,100,100,50,500,100,500,100,50,200,500,100,500,500,50,500,200,50,100,200,200,200,500,500,50,50,200,200,100,100,50,100,200,100,50,500,100,100,200,100,50,200,100,200,500,50,50,50,50,500,200,50,100,100,200,200,500,500,50,200,50,50,50,50,500,100,500,500,100,200,100,200,50,100,50,50,100,200,500,100,200,200,100,100,200,50,200,50,200"
# Node 3 random conversational traffic
dtnsim.node[3].app.enable = true
dtnsim.node[3].app.bundlesNumber = "1,5,5,2,5,4,4,1,3,4,1,1,5,2,5,2,3,4,1,3,1,5,1,4,2,4,4,3,4,1,1,1,5,5,4,5,3,2,3,2,5,2,2,3,5,4,3,1,3,1,4,2,4,5,5,4,3,4,3,2,3,1,4,4,1,2,5,2,5,5,1,3,1,2,5,5,1,3,4,5,1,4,1,2,2,4,5,3,3,1,4,5,5,2,3,2,3,1,4,5"
dtnsim.node[3].app.start = "22,95,24,13,75,92,77,19,100,27,91,71,99,12,56,100,93,39,19,66,100,93,62,87,90,92,77,23,25,33,84,48,47,96,72,96,66,59,22,25,97,28,87,57,10,67,58,15,17,73,79,67,56,47,96,16,2,32,1,98,71,29,66,50,68,27,69,1,95,56,68,26,9,66,89,83,92,29,37,72,8,95,46,54,96,39,76,82,25,97,83,13,91,81,76,2,36,62,2,3"
dtnsim.node[3].app.destinationEid = "2,2,2,2,2,2,2,2,2,2,2,2,2,2,2,2,2,2,2,2,2,2,2,2,2,2,2,4,4,4,4,4,4,4,4,4,4,4,4,4,4,4,4,4,4,4,4,4,4,4,4,4,4,4,4,4,4,4,4,4,4,4,4,4,4,4,4,4,4,4,4,4,4,4,4,4,4,4,4,4,4,4,4,4,4,4,4,4,4,4,4,4,4,4,4,4,4,4,4,4"
dtnsim.node[3].app.size = "200,50,100,500,500,500,500,500,500,100,500,50,50,500,200,500,200,200,500,100,100,100,100,100,500,50,100,100,50,500,200,200,200,200,200,500,50,50,200,100,50,200,200,100,200,200,50,50,500,500,100,100,50,200,200,50,200,500,500,500,100,100,100,500,50,500,100,200,50,100,50,200,50,500,500,50,50,200,200,500,100,500,500,50,100,50,50,200,500,200,50,50,500,200,100,100,200,500,100,100"
# Node 4 random conversational traffic
dtnsim.node[4].app.enable = true
dtnsim.node[4].app.bundlesNumber = "3,2,2,4,2,4,2,3,4,3,2,5,2,5,3,4,4,2,2,1,1,2,3,2,2,4,1,5,3,1,5,1,1,5,5,5,3,3,2,2,1,2,2,5,5,2,4,1,3,5,4,1,2,1,2,2,1,3,4,1,5,1,4,4,2,3,1,2,5,1,4,5,2,1,2,1,5,5,1,4,2,1,5,1,4,5,5,4,2,4,4,1,3,2,4,3,2,3,1,2"
dtnsim.node[4].app.start = "89,51,98,97,31,99,38,94,58,17,66,24,19,74,77,59,98,18,10,75,30,75,78,37,71,3,30,93,36,74,13,100,53,55,98,40,85,90,35,16,100,88,46,63,8,13,93,2,17,83,99,76,53,59,85,99,35,52,57,11,88,72,53,85,87,1,93,14,55,47,4,67,65,35,4,32,33,15,81,15,29,61,52,12,79,81,36,79,29,38,39,28,3,89,52,55,60,67,31,7"
dtnsim.node[4].app.destinationEid = "3,3,3,3,3,3,3,3,3,3,3,3,3,3,3,3,3,3,3,3,3,3,3,3,3,3,3,3,3,3,3,3,3,3,3,3,3,3,3,3,3,3,3,3,3,3,5,5,5,5,5,5,5,5,5,5,5,5,5,5,5,5,5,5,5,5,5,5,5,5,5,5,5,5,5,5,5,5,5,5,5,5,5,5,5,5,5,5,5,5,5,5,5,5,5,5,5,5,5,5"
dtnsim.node[4].app.size = "200,50,500,50,500,200,500,200,200,200,200,500,100,200,200,500,200,100,500,500,500,200,50,500,200,500,100,100,50,500,500,100,100,200,200,50,100,200,100,200,500,50,500,200,100,50,50,200,50,500,50,50,500,100,200,200,100,200,500,50,200,100,100,100,50,50,500,50,500,50,100,50,500,200,200,50,500,50,100,200,200,50,200,200,50,50,500,50,200,100,100,100,200,100,200,50,200,50,500,200"
# Node 5 random conversational traffic
dtnsim.node[5].app.enable = true
dtnsim.node[5].app.bundlesNumber = "1,4,5,2,4,4,5,5,4,2,4,3,1,1,1,2,4,5,1,2,4,2,3,5,4,1,5,5,1,5,5,4,2,2,2,4,3,4,3,2,3,5,2,1,4,3,2,5,2,3,3,2,1,5,5,3,1,1,3,2,5,2,5,2,1,1,1,3,1,3,5,1,2,1,1,3,3,1,1,3,2,4,5,3,5,1,1,5,1,5,4,2,1,1,3,1,4,1,1,5"
dtnsim.node[5].app.start = "7,22,93,100,81,62,100,44,56,12,80,57,97,60,9,68,41,5,33,83,39,67,54,85,40,85,46,45,12,56,67,73,8,28,11,12,13,98,9,16,81,20,1,73,33,83,69,71,55,100,47,63,60,21,20,98,74,43,13,11,59,72,84,70,39,60,32,5,62,81,19,1,1,61,54,28,8,53,99,36,29,22,78,43,71,6,40,99,58,85,42,10,64,90,15,77,37,96,17,86"
dtnsim.node[5].app.destinationEid = "4,4,4,4,4,4,4,4,4,4,4,4,4,4,4,4,4,4,4,4,4,4,4,4,4,4,4,4,4,4,4,4,4,6,6,6,6,6,6,6,6,6,6,6,6,6,6,6,6,6,6,6,6,6,6,6,6,6,6,6,6,6,6,6,6,6,6,6,6,6,6,6,6,6,6,6,6,6,6,6,6,6,6,6,6,6,6,6,6,6,6,6,6,6,6,6,6,6,6,6"
dtnsim.node[5].app.size = "50,100,50,100,100,500,500,100,100,200,50,100,50,50,100,500,200,50,200,100,500,200,50,100,50,500,50,50,50,50,500,100,200,100,500,100,50,200,500,50,200,50,200,100,500,50,100,50,50,100,50,200,200,200,200,50,500,500,50,100,200,50,500,200,50,100,100,50,200,500,100,100,50,200,500,200,100,50,50,200,50,50,50,200,500,500,100,100,500,500,200,50,500,50,500,200,500,100,200,500"
# Node 6 random conversational traffic
dtnsim.node[6].app.enable = true
dtnsim.node[6].app.bundlesNumber = "5,3,4,1,5,5,2,4,3,3,2,2,3,2,2,4,5,3,3,3,3,3,3,5,3,3,4,3,1,3,4,3,3,4,2,3,4,2,4,4,5,4,1,3,3,5,5,4,5,3,3,4,3,2,1,1,2,2,4,1,4,3,4,5,3,3,5,3,1,1,1,2,1,5,2,2,3,3,2,4,1,3,4,5,3,4,2,2,1,5,3,4,3,1,3,1,1,5,3,2"
dtnsim.node[6].app.start = "16,21,99,13,22,82,21,79,38,77,78,65,100,48,99,77,15,19,78,85,80,66,34,25,4,7,70,18,100,44,30,47,12,41,68,93,47,99,18,46,23,93,15,19,22,18,11,67,28,57,29,81,9,63,51,23,27,13,25,59,2,88,47,87,95,58,23,82,39,15,42,92,92,33,87,31,66,59,26,93,7,84,60,67,67,50,52,38,72,40,75,51,33,68,50,88,26,4,30,78"
dtnsim.node[6].app.destinationEid = "5,5,5,5,5,5,5,5,5,5,5,5,5,5,5,5,5,5,5,5,5,5,5,5,5,5,5,5,5,5,5,5,5,5,5,5,5,5,5,5,5,5,7,7,7,7,7,7,7,7,7,7,7,7,7,7,7,7,7,7,7,7,7,7,7,7,7,7,7,7,7,7,7,7,7,7,7,7,7,7,7,7,7,7,7,7,7,7,7,7,7,7,7,7,7,7,7,7,7,7"
dtnsim.node[6].app.size = "100,100,100,200,50,100,500,200,50,50,100,50,500,500,50,200,200,50,50,50,50,500,100,50,200,50,50,100,500,50,200,50,200,200,50,200,100,200,100,50,500,50,50,50,100,100,50,50,200,200,500,50,100,50,500,200,500,50,50,100,50,100,500,500,50,50,100,50,50,100,50,500,50,50,50,200,100,200,100,100,500,200,500,500,50,100,100,500,50,100,100,200,500,500,100,500,50,50,50,50"
# Node 7 random conversational traffic
dtnsim.node[7].app.enable = true
dtnsim.node[7].app.bundlesNumber = "5,5,4,1,5,5,5,4,3,3,2,5,2,4,1,1,1,1,5,2,1,4,1,3,3,3,1,4,2,1,3,3,4,4,4,2,5,5,2,5,1,1,4,1,4,1,3,1,3,5,2,1,5,3,1,2,2,4,3,1,3,4,1,5,3,3,5,5,5,2,5,2,2,5,3,5,3,2,2,5,4,2,3,3,3,4,2,2,1,4,4,5,1,1,2,4,2,2,3,1"
dtnsim.node[7].app.start = "21,28,21,19,66,32,66,32,37,23,28,12,92,16,49,95,36,96,32,27,86,61,68,69,58,42,61,36,27,5,80,64,60,4,32,70,30,34,76,32,56,34,49,36,43,73,14,92,54,50,28,24,25,93,49,74,10,46,2,16,99,30,85,31,8,20,63,92,83,18,25,88,41,52,62,49,60,38,7,54,40,78,89,47,82,67,94,75,65,54,89,94,17,67,54,10,52,60,39,30"
dtnsim.node[7].app.destinationEid = "6,6,6,6,6,6,6,6,6,6,6,6,6,6,6,6,6,6,6,6,6,6,6,6,6,6,6,6,6,6,6,8,8,8,8,8,8,8,8,8,8,8,8,8,8,8,8,8,8,8,8,8,8,8,8,8,8,8,8,8,8,8,8,8,8,8,8,8,8,8,8,8,8,8,8,8,8,8,8,8,8,8,8,8,8,8,8,8,8,8,8,8,8,8,8,8,8,8,8,8"
dtnsim.node[7].app.size = "50,100,100,500,50,500,200,500,200,100,500,500,100,200,200,200,100,100,100,200,100,500,200,500,100,50,50,200,200,100,100,100,50,200,50,100,500,100,100,200,200,100,50,50,200,200,200,200,500,100,200,200,100,100,50,50,500,100,200,500,500,500,200,50,200,200,50,500,200,50,200,200,200,200,100,200,100,200,100,200,200,50,200,200,200,500,100,500,100,500,200,100,100,200,200,200,200,500,50,500"
# Node 8 random conversational traffic
dtnsim.node[8].app.enable = true
dtnsim.node[8].app.bundlesNumber = "1,1,3,5,4,2,3,2,1,5,4,5,2,2,2,1,5,1,3,4,1,5,4,1,5,2,1,3,4,2,5,2,3,4,1,1,3,2,3,1,4,2,3,2,3,3,1,2,2,4,2,3,1,3,5,3,2,4,3,4,1,5,2,2,2,5,5,3,4,3,3,4,2,2,5,4,1,2,3,1,3,1,4,4,3,2,3,1,1,2,1,4,4,4,4,1,3,5,5,4"
dtnsim.node[8].app.start = "62,77,34,40,62,36,43,59,29,27,99,56,84,16,22,35,35,10,92,24,34,53,66,50,67,80,50,92,74,100,55,97,96,23,71,61,11,69,40,35,27,80,93,13,79,50,63,11,94,15,37,25,46,95,7,30,43,77,20,58,63,78,71,35,12,70,68,8,19,82,61,59,85,52,58,91,71,29,77,52,64,3,29,26,74,9,43,95,95,66,85,95,17,24,25,15,13,69,13,92"
dtnsim.node[8].app.destinationEid = "7,7,7,7,7,7,7,7,7,7,7,7,7,7,7,7,7,7,7,7,7,7,7,7,7,7,7,7,7,7,7,7,7,7,7,7,7,7,7,7,9,9,9,9,9,9,9,9,9,9,9,9,9,9,9,9,9,9,9,9,9,9,9,9,9,9,9,9,9,9,9,9,9,9,9,9,9,9,9,9,9,9,9,9,9,9,9,9,9,9,9,9,9,9,9,9,9,9,9,9"
dtnsim.node[8].app.size = "100,200,200,200,200,500,500,500,50,100,200,500,500,200,200,500,200,500,100,200,50,100,200,500,50,50,50,200,50,50,200,200,500,200,200,200,500,100,50,500,100,100,100,200,50,200,100,500,50,50,500,50,200,100,100,500,200,50,100,500,500,100,200,500,50,200,200,500,500,200,500,500,200,200,200,100,200,100,500,200,100,50,50,500,50,500,100,100,500,500,500,100,100,50,500,200,200,100,50,200"
# Node 9 random conversational traffic
dtnsim.node[9].app.enable = true
dtnsim.node[9].app.bundlesNumber = "1,3,1,1,5,2,3,1,3,5,5,2,2,1,1,1,1,4,3,1,3,2,5,5,1,1,4,2,1,2,2,5,2,1,2,1,4,1,1,3,4,2,3,3,3,3,4,3,4,2,4,2,3,2,1,3,1,3,4,5,1,3,1,5,5,1,1,2,1,4,5,2,4,5,1,4,3,4,2,5,5,3,4,1,3,3,3,5,2,2,2,4,4,3,2,3,5,1,5,3"
dtnsim.node[9].app.start = "85,99,89,73,96,17,42,100,13,32,79,30,77,40,21,75,9,92,62,68,91,59,81,81,61,69,4,39,80,18,99,96,29,17,19,99,20,68,72,69,98,96,87,86,98,1,82,1,25,5,97,37,49,18,20,82,19,40,93,1,89,32,28,81,64,75,93,53,75,61,18,22,100,41,10,88,10,48,100,75,68,44,90,86,29,61,28,46,88,82,68,2,84,52,100,39,27,64,67,44"
dtnsim.node[9].app.destinationEid = "8,8,8,8,8,8,8,8,8,8,8,8,8,8,8,8,8,8,8,8,8,8,8,8,8,8,8,8,8,8,8,8,8,8,8,8,10,10,10,10,10,10,10,10,10,10,10,10,10,10,10,10,10,10,10,10,10,10,10,10,10,10,10,10,10,10,10,10,10,10,10,10,10,10,10,10,10,10,10,10,10,10,10,10,10,10,10,10,10,10,10,10,10,10,10,10,10,10,10,10"
dtnsim.node[9].app.size = "500,50,100,100,50,50,50,50,100,200,50,100,500,500,200,50,200,200,50,50,100,200,200,50,500,500,200,50,50,500,200,500,500,50,50,50,50,500,500,50,100,500,500,100,100,50,100,200,200,500,200,500,500,50,200,200,100,50,50,100,50,200,200,100,50,200,50,100,200,500,200,50,50,500,50,50,200,200,200,50,100,100,500,200,100,200,500,200,100,500,200,500,500,200,100,100,50,200,50,100"
# Node 10 random conversational traffic
dtnsim.node[10].app.enable = true
dtnsim.node[10].app.bundlesNumber = "2,4,5,4,2,2,1,1,5,4,4,1,2,4,1,2,4,2,4,3,5,1,3,4,5,4,1,3,3,1,1,3,2,1,4,1,2,1,4,5,1,2,1,4,5,3,3,2,5,1,1,2,3,4,1,1,2,5,5,1,1,4,4,2,3,3,2,1,4,3,1,5,5,5,4,1,2,1,4,1,2,1,2,1,4,5,5,1,5,5,5,2,2,2,1,4,1,5,3,5"
dtnsim.node[10].app.start = "79,74,100,89,100,11,32,6,38,26,24,20,7,34,87,66,79,63,70,26,100,46,53,78,91,87,38,62,91,89,77,12,88,100,69,76,47,3,18,42,69,5,71,5,83,28,30,16,11,18,46,59,86,39,1,98,57,7,24,6,65,66,4,44,83,35,50,81,16,8,85,86,95,79,51,77,86,29,89,80,33,50,84,91,14,78,98,71,31,35,90,22,90,59,91,75,3,84,39,18"
dtnsim.node[10].app.destinationEid = "9,9,9,9,9,9,9,9,9,9,9,9,9,9,9,9,9,9,9,9,9,9,9,9,9,9,9,9,9,9,9,9,9,9,9,9,11,11,11,11,11,11,11,11,11,11,11,11,11,11,11,11,11,11,11,11,11,11,11,11,11,11,11,11,11,11,11,11,11,11,11,11,11,11,11,11,11,11,11,11,11,11,11,11,11,11,11,11,11,11,11,11,11,11,11,11,11,11,11,11"
dtnsim.node[10].app.size = "200,100,500,50,200,500,200,100,50,500,500,50,200,50,500,50,50,500,200,100,50,50,200,50,200,200,500,500,50,50,500,500,500,50,200,50,200,500,500,100,200,50,200,500,200,200,50,50,100,500,50,500,100,50,500,200,500,50,200,50,100,500,500,500,50,100,50,50,50,100,50,200,50,50,200,500,100,50,500,100,50,50,500,50,200,500,100,100,200,200,50,200,100,500,50,200,500,500,500,50"
# Node 11 random conversational traffic
dtnsim.node[11].app.enable = true
dtnsim.node[11].app.bundlesNumber = "5,4,1,3,4,2,2,4,4,1,3,4,2,1,3,3,3,4,4,4,1,3,1,3,4,1,1,5,1,5,4,5,3,3,2,5,5,2,3,2,1,3,1,5,4,4,2,3,4,3,3,1,3,4,2,4,4,2,5,5,5,1,4,2,4,1,2,2,1,3,3,3,5,4,2,4,5,5,2,5,5,5,1,5,1,4,2,4,3,5,1,5,4,4,5,5,5,5,4,4"
dtnsim.node[11].app.start = "20,43,71,14,80,21,16,24,55,94,8,14,12,70,49,91,86,17,15,92,96,56,93,90,35,53,94,96,85,37,36,27,92,83,9,89,35,37,28,40,40,62,17,37,9,97,11,58,52,100,18,60,40,45,69,56,28,48,69,82,22,86,100,25,69,25,9,24,41,84,26,89,52,43,73,12,38,26,72,85,43,44,24,2,71,71,47,17,96,78,9,33,96,71,46,88,25,4,4,52"
dtnsim.node[11].app.destinationEid = "10,10,10,10,10,10,10,10,10,10,10,10,10,10,10,10,10,10,10,10,10,10,10,10,10,10,10,10,10,10,10,10,10,10,10,10,12,12,12,12,12,12,12,12,12,12,12,12,12,12,12,12,12,12,12,12,12,12,12,12,12,12,12,12,12,12,12,12,12,12,12,12,12,12,12,12,12,12,12,12,12,12,12,12,12,12,12,12,12,12,12,12,12,12,12,12,12,12,12,12"
dtnsim.node[11].app.size = "200,100,500,50,500,100,50,200,50,200,500,200,500,500,50,100,50,200,200,200,100,50,100,100,200,200,50,100,200,500,200,200,200,50,500,200,200,200,100,500,100,100,500,100,100,100,100,500,50,100,50,500,50,500,100,50,200,100,50,500,500,50,100,200,500,200,50,200,50,50,200,200,500,50,50,500,200,100,500,100,100,500,500,200,200,50,50,100,50,200,500,500,200,50,50,100,500,100,50,200"
# Node 12 random conversational traffic
dtnsim.node[12].app.enable = true
dtnsim.node[12].app.bundlesNumber = "1,4,2,1,4,2,2,4,1,4,4,1,5,2,5,2,3,1,5,3,2,1,4,1,5,1,3,4,5,5,1,1,5,2,3,3,3,3,1,3,1,2,3,1,5,3,3,3,4,5,4,2,2,5,3,1,2,4,4,1,3,3,5,5,5,5,3,1,5,3,5,5,1,5,5,3,1,4,4,2,1,2,4,5,3,2,4,2,4,3,1,1,1,1,3,5,2,1,1,2"
dtnsim.node[12].app.start = "36,48,47,68,21,44,14,65,59,100,20,50,48,30,52,77,92,23,100,71,11,42,57,79,41,31,89,46,29,78,79,51,18,80,15,78,50,27,61,28,57,98,69,85,62,41,73,33,87,76,7,9,27,28,8,41,11,40,5,43,45,50,91,19,51,8,99,4,15,68,33,16,30,85,83,71,19,2,15,27,64,85,77,33,53,90,81,24,63,84,96,81,43,87,36,85,8,86,64,80"
dtnsim.node[12].app.destinationEid = "11,11,11,11,11,11,11,11,11,11,11,11,11,11,11,11,11,11,11,11,11,11,11,11,11,11,11,11,11,11,11,11,11,11,11,11,11,11,11,13,13,13,13,13,13,13,13,13,13,13,13,13,13,13,13,13,13,13,13,13,13,13,13,13,13,13,13,13,13,13,13,13,13,13,13,13,13,13,13,13,13,13,13,13,13,13,13,13,13,13,13,13,13,13,13,13,13,13,13,13"
dtnsim.node[12].app.size = "200,100,500,500,100,200,200,50,100,500,100,100,200,50,200,50,100,200,200,100,200,500,50,200,200,200,100,100,100,200,500,200,500,200,200,500,500,100,200,500,50,500,50,100,100,500,50,50,50,100,500,200,500,500,100,100,200,50,200,500,50,200,500,200,100,200,100,50,500,100,100,200,100,500,500,500,200,200,500,50,200,50,200,200,200,200,50,500,50,50,200,500,50,200,100,500,500,50,500,500"
# Node 13 random conversational traffic
dtnsim.node[13].app.enable = true
dtnsim.node[13].app.bundlesNumber = "1,1,3,3,1,2,5,2,2,2,5,4,3,4,3,4,5,4,4,1,2,2,3,5,3,3,4,2,3,4,5,4,1,5,5,2,4,5,4,1,3,4,4,2,1,5,1,2,3,5,4,3,4,3,3,2,5,2,4,1,5,1,5,1,5,5,2,1,3,2,1,3,4,1,5,4,1,2,1,2,2,3,2,3,3,4,1,4,5,3,1,2,4,2,4,5,4,1,5,4"
dtnsim.node[13].app.start = "63,100,79,63,90,12,18,16,51,13,50,49,51,59,9,100,8,24,76,24,40,95,80,18,93,83,43,67,88,100,87,49,40,90,12,90,73,85,43,59,19,47,23,4,84,54,55,51,23,16,39,68,33,99,38,47,54,80,70,95,19,1,68,20,66,50,93,60,21,7,84,40,21,40,95,85,70,77,83,13,11,24,71,73,70,9,77,39,65,44,95,30,28,24,42,15,79,98,69,21"
dtnsim.node[13].app.destinationEid = "12,12,12,12,12,12,12,12,12,12,12,12,12,12,12,12,12,12,12,12,12,12,12,12,12,12,12,12,12,12,12,12,12,12,12,12,12,12,14,14,14,14,14,14,14,14,14,14,14,14,14,14,14,14,14,14,14,14,14,14,14,14,14,14,14,14,14,14,14,14,14,14,14,14,14,14,14,14,14,14,14,14,14,14,14,14,14,14,14,14,14,14,14,14,14,14,14,14,14,14"
dtnsim.node[13].app.size = "50,200,500,500,100,50,100,200,200,500,50,200,200,500,50,200,500,500,100,50,500,500,100,500,200,500,100,200,200,200,200,500,500,50,500,200,500,50,200,500,200,500,200,500,100,50,200,500,500,500,50,100,200,50,100,100,100,200,200,200,100,200,100,500,50,100,100,100,50,500,200,500,200,50,50,50,50,200,500,500,500,100,100,100,500,50,100,100,200,100,200,200,200,200,200,100,100,200,500,50"
# Node 14 random conversational traffic
dtnsim.node[14].app.enable = true
dtnsim.node[14].app.bundlesNumber = "2,5,2,5,4,3,1,5,2,4,1,5,3,5,1,3,2,3,3,5,2,1,1,3,2,1,3,4,3,3,5,5,5,2,3,5,1,1,4,2,4,4,5,5,1,4,4,4,2,5,1,2,3,3,1,2,2,2,4,4,2,3,5,3,4,5,2,3,4,1,3,3,1,1,4,5,2,5,3,4,1,4,3,5,2,5,2,5,3,2,4,2,3,4,3,1,1,5,4,4"
dtnsim.node[14].app.start = "64,57,32,14,92,55,57,22,73,37,100,26,3,71,23,54,67,26,10,91,46,23,50,100,80,87,21,17,31,75,87,75,52,98,39,26,47,100,79,23,87,24,83,16,72,36,90,59,77,67,91,25,53,23,5,17,29,50,96,43,73,90,85,78,88,61,58,79,61,21,66,78,5,20,4,95,15,64,93,87,87,96,7,54,63,1,51,27,74,87,16,78,5,77,67,81,69,55,47,88"
dtnsim.node[14].app.destinationEid = "13,13,13,13,13,13,13,13,13,13,13,13,13,13,13,13,13,13,13,13,13,13,13,13,13,13,13,13,13,13,13,13,13,13,13,13,13,13,13,13,15,15,15,15,15,15,15,15,15,15,15,15,15,15,15,15,15,15,15,15,15,15,15,15,15,15,15,15,15,15,15,15,15,15,15,15,15,15,15,15,15,15,15,15,15,15,15,15,15,15,15,15,15,15,15,15,15,15,15,15"
dtnsim.node[14].app.size = "500,50,500,500,50,500,100,50,500,500,500,100,200,500,50,500,500,50,200,500,200,200,50,100,50,200,500,100,200,50,50,50,50,200,500,100,100,100,50,200,50,200,100,500,500,50,100,50,200,200,200,50,200,200,100,200,50,100,500,100,200,100,50,200,500,500,50,500,100,50,200,50,500,100,100,100,500,500,500,50,500,100,500,100,200,500,500,50,50,100,50,100,50,500,200,50,50,500,100,100"
# Node 15 random conversational traffic
dtnsim.node[15].app.enable = true
dtnsim.node[15].app.bundlesNumber = "5,4,2,2,2,2,5,2,3,4,3,4,5,1,3,1,2,4,5,5,2,4,1,5,5,1,3,5,4,3,3,1,2,2,5,2,2,3,2,1,1,5,1,5,2,5,3,3,3,2,2,3,5,5,4,3,1,3,5,2,4,1,5,3,4,4,1,5,5,2,2,1,3,1,3,1,3,4,2,1,5,3,2,4,1,3,2,4,3,5,3,2,5,4,4,1,1,2,1,3"
dtnsim.node[15].app.start = "31,91,26,75,46,94,67,69,96,60,25,10,98,92,80,92,71,26,75,81,10,27,97,93,15,69,6,60,78,87,15,80,77,52,92,9,58,27,24,11,97,1,64,66,27,49,95,92,60,26,32,9,96,4,39,16,1,69,4,26,68,41,1,86,65,29,11,11,37,63,82,20,73,75,5,97,63,82,92,22,48,58,3,42,34,30,37,81,33,66,78,67,36,78,50,47,39,87,56,34"
dtnsim.node[15].app.destinationEid = "14,14,14,14,14,14,14,14,14,14,14,14,14,14,14,14,14,14,14,14,14,14,14,14,14,14,14,14,14,14,14,14,14,14,14,16,16,16,16,16,16,16,16,16,16,16,16,16,16,16,16,16,16,16,16,16,16,16,16,16,16,16,16,16,16,16,16,16,16,16,16,16,16,16,16,16,16,16,16,16,16,16,16,16,16,16,16,16,16,16,16,16,16,16,16,16,16,16,16,16"
dtnsim.node[15].app.size = "50,50,100,50,50,200,500,50,200,100,200,50,50,200,100,100,200,500,100,200,200,50,100,50,200,100,500,200,50,500,200,50,50,200,100,200,100,50,50,500,500,50,50,500,50,50,500,100,500,200,500,500,200,100,500,50,200,500,50,100,200,50,50,50,50,100,500,500,200,200,100,100,100,50,200,100,50,200,50,200,500,200,50,500,50,50,100,500,500,200,50,100,100,500,500,50,200,100,100,100"
# Node 16 random conversational traffic
dtnsim.node[16].app.enable = true
dtnsim.node[16].app.bundlesNumber = "1,2,1,5,3,4,1,4,4,2,1,4,2,5,5,4,2,3,5,3,5,5,2,3,5,4,2,2,4,1,4,3,5,2,1,1,1,3,1,3,4,2,4,2,4,3,5,5,2,1,5,2,2,1,4,4,2,4,3,1,1,1,3,2,4,4,1,2,2,5,5,1,5,5,1,3,4,3,1,5,4,2,5,2,4,1,3,3,1,4,2,1,1,1,4,2,3,5,1,3"
dtnsim.node[16].app.start = "18,29,65,70,33,50,100,70,34,15,41,11,31,75,42,8,91,38,68,79,77,100,64,84,100,27,66,37,35,38,79,84,54,57,61,37,63,6,83,16,76,18,68,38,60,17,64,63,50,83,61,8,61,16,19,9,7,77,18,57,89,21,100,40,72,85,33,44,94,66,87,29,86,92,34,27,50,2,61,90,98,54,92,23,61,34,58,15,93,56,16,65,100,93,93,47,22,32,85,58"
dtnsim.node[16].app.destinationEid = "15,15,15,15,15,15,15,15,15,15,15,15,15,15,15,15,15,15,15,15,15,15,15,15,15,15,15,15,15,15,15,15,15,15,15,15,17,17,17,17,17,17,17,17,17,17,17,17,17,17,17,17,17,17,17,17,17,17,17,17,17,17,17,17,17,17,17,17,17,17,17,17,17,17,17,17,17,17,17,17,17,17,17,17,17,17,17,17,17,17,17,17,17,17,17,17,17,17,17,17"
dtnsim.node[16].app.size = "200,200,50,100,200,100,500,100,100,50,200,200,50,50,50,50,200,50,50,500,500,200,50,200,50,100,500,200,500,200,50,50,50,200,500,100,200,100,50,500,200,500,200,500,50,100,500,500,50,100,100,500,100,500,500,200,200,50,50,50,500,50,200,200,50,200,100,100,50,50,200,50,200,100,100,200,500,500,100,100,100,100,200,100,500,100,500,500,50,100,500,100,500,100,200,500,50,100,100,50"
# Node 17 random conversational traffic
dtnsim.node[17].app.enable = true
dtnsim.node[17].app.bundlesNumber = "3,3,4,3,1,3,3,5,3,3,5,5,4,1,5,3,1,5,4,2,4,3,5,5,2,4,5,5,5,4,1,2,5,2,4,1,4,5,2,1,3,3,3,1,2,4,4,3,5,4,5,4,4,2,3,5,4,4,5,5,4,3,2,5,4,1,3,1,1,1,4,4,2,4,3,4,1,3,1,2,5,4,2,5,5,5,1,1,4,1,3,1,4,1,4,2,2,1,4,3"
dtnsim.node[17].app.start = "85,21,76,68,20,54,86,62,10,68,10,13,82,60,92,31,100,48,82,92,39,49,96,73,91,99,31,66,100,62,98,71,41,60,16,96,66,22,74,100,48,32,33,16,93,28,90,28,18,4,67,36,24,80,34,33,65,2,58,40,21,69,50,66,51,18,70,48,42,42,87,12,98,17,71,98,93,48,53,17,47,44,72,17,5,88,15,86,93,74,22,71,90,66,37,48,48,67,66,24"
dtnsim.node[17].app.destinationEid = "16,16,16,16,16,16,16,16,16,16,16,16,16,16,16,16,16,16,16,16,16,16,16,16,16,16,16,16,16,16,16,16,16,16,16,16,16,16,16,16,16,16,16,18,18,18,18,18,18,18,18,18,18,18,18,18,18,18,18,18,18,18,18,18,18,18,18,18,18,18,18,18,18,18,18,18,18,18,18,18,18,18,18,18,18,18,18,18,18,18,18,18,18,18,18,18,18,18,18,18"
dtnsim.node[17].app.size = "200,50,200,200,500,50,50,100,50,50,500,100,200,50,200,50,500,200,500,100,200,200,500,100,500,200,500,200,50,200,200,200,100,50,100,200,100,200,50,500,200,500,100,500,200,50,100,100,200,50,200,100,100,100,200,500,200,500,50,100,50,500,500,100,50,100,200,50,500,500,50,50,50,50,100,100,200,200,500,50,100,200,500,50,50,200,100,50,200,500,100,50,50,200,200,50,100,200,50,200"
# Node 18 random conversational traffic
dtnsim.node[18].app.enable = true
dtnsim.node[18].app.bundlesNumber = "5,5,4,5,4,2,2,3,3,2,4,2,3,1,2,1,4,1,5,1,2,4,5,4,2,1,1,3,4,4,3,1,5,3,5,2,4,5,2,1,4,1,3,4,4,2,3,1,5,3,5,1,4,1,1,2,1,1,5,4,1,5,1,4,3,1,5,5,1,2,4,2,2,1,5,4,2,5,3,2,1,3,1,4,1,1,1,4,5,3,1,5,1,3,5,3,3,4,2,1"
dtnsim.node[18].app.start = "97,34,35,5,70,46,88,38,39,66,65,47,24,51,71,77,93,21,20,80,100,50,56,55,73,27,89,97,84,76,76,66,10,34,61,95,46,3,54,87,87,29,19,42,92,9,83,42,49,6,40,59,64,43,75,62,68,7,65,98,80,43,7,100,44,25,67,79,27,96,10,76,29,98,59,91,24,98,9,44,80,74,61,12,38,6,75,77,67,63,92,29,89,46,19,71,36,99,21,6"
dtnsim.node[18].app.destinationEid = "17,17,17,17,17,17,17,17,17,17,17,17,17,17,17,17,17,17,17,17,17,17,17,17,17,17,17,17,17,17,17,19,19,19,19,19,19,19,19,19,19,19,19,19,19,19,19,19,19,19,19,19,19,19,19,19,19,19,19,19,19,19,19,19,19,19,19,19,19,19,19,19,19,19,19,19,19,19,19,19,19,19,19,19,19,19,19,19,19,19,19,19,19,19,19,19,19,19,19,19"
dtnsim.node[18].app.size = "500,200,100,200,500,100,200,200,500,200,50,100,200,50,100,500,500,100,500,50,500,500,100,500,500,50,500,200,100,100,100,100,200,500,50,100,500,200,50,100,500,200,50,100,100,200,500,200,100,50,50,100,500,50,500,200,50,100,500,500,100,500,50,200,50,500,100,50,100,100,100,200,50,500,100,500,500,200,500,50,50,50,200,100,50,200,100,50,100,200,500,50,50,100,100,100,500,50,200,500"
# Node 19 random conversational traffic
dtnsim.node[19].app.enable = true
dtnsim.node[19].app.bundlesNumber = "5,2,5,3,5,1,5,5,1,4,2,5,1,1,4,1,3,5,2,2,1,4,3,5,3,4,5,3,5,5,5,3,1,5,1,4,4,4,5,3,4,1,5,2,4,1,5,1,4,2,5,1,5,1,3,2,2,1,1,2,5,5,5,5,5,5,3,4,4,5,1,1,1,5,2,4,4,2,1,3,1,2,1,4,1,3,5,4,4,1,4,3,5,3,2,2,1,1,2,1"
dtnsim.node[19].app.start = "70,11,62,13,91,50,13,88,51,45,67,73,50,84,70,10,74,84,51,32,70,84,14,33,99,65,99,14,50,82,84,18,14,82,87,77,94,30,98,53,73,44,100,25,3,46,77,24,31,95,27,58,89,86,20,88,19,8,19,90,60,3,95,14,18,1,20,4,95,33,4,95,85,84,38,53,61,51,100,58,35,17,79,54,91,19,18,16,69,5,80,15,17,90,89,47,37,72,55,43"
dtnsim.node[19].app.destinationEid = "18,18,18,18,18,18,18,18,18,18,18,18,18,18,18,18,18,18,18,18,18,18,18,18,18,18,18,18,18,18,18,18,18,18,18,18,18,18,18,18,18,18,18,18,20,20,20,20,20,20,20,20,20,20,20,20,20,20,20,20,20,20,20,20,20,20,20,20,20,20,20,20,20,20,20,20,20,20,20,20,20,20,20,20,20,20,20,20,20,20,20,20,20,20,20,20,20,20,20,20"
dtnsim.node[19].app.size = "50,50,100,200,100,100,500,500,100,100,200,500,50,200,200,200,500,100,200,500,200,200,100,50,200,50,50,200,500,50,200,200,500,200,100,50,500,50,200,50,500,200,500,50,500,50,500,100,200,200,200,100,100,200,200,50,50,500,100,500,500,500,100,200,50,500,500,200,50,100,50,100,200,100,50,100,500,100,500,100,200,100,200,200,50,50,500,500,50,50,200,100,100,200,100,200,200,100,500,500"
# Node 20 random conversational traffic
dtnsim.node[20].app.enable = true
dtnsim.node[20].app.bundlesNumber = "2,5,1,4,5,4,4,1,2,1,3,1,5,1,2,2,1,1,4,3,4,3,2,2,1,5,2,4,3,3,3,4,5,5,4,4,1,2,2,2,2,1,4,5,5,5,2,3,2,1,1,2,4,1,4,1,3,2,3,4,4,1,3,3,2,5,4,3,1,2,2,3,2,5,2,1,5,1,3,5,3,1,4,2,2,5,1,1,2,5,5,5,3,2,2,4,2,3,2,3"
dtnsim.node[20].app.start = "55,80,34,38,98,34,93,28,93,10,20,99,65,10,97,22,11,26,36,96,89,91,55,100,19,89,19,20,79,9,86,19,93,91,39,57,50,24,34,33,77,11,38,13,2,66,80,42,35,72,46,17,72,64,91,7,73,81,30,11,15,86,59,59,40,33,22,50,5,79,64,42,78,27,36,43,100,27,66,45,64,4,4,89,95,57,58,3,20,2,10,72,62,66,71,62,69,24,31,70"
dtnsim.node[20].app.destinationEid = "19,19,19,19,19,19,19,19,19,19,19,19,19,19,19,19,19,19,19,19,19,19,19,19,19,19,19,19,19,19,19,19,19,19,19,19,19,21,21,21,21,21,21,21,21,21,21,21,21,21,21,21,21,21,21,21,21,21,21,21,21,21,21,21,21,21,21,21,21,21,21,21,21,21,21,21,21,21,21,21,21,21,21,21,21,21,21,21,21,21,21,21,21,21,21,21,21,21,21,21"
dtnsim.node[20].app.size = "50,200,200,100,100,500,100,50,200,200,500,200,200,500,200,200,500,50,100,500,100,50,500,100,500,100,50,200,500,100,100,500,100,500,50,100,50,500,500,500,50,200,200,50,100,50,500,50,500,50,500,500,50,50,50,50,200,100,200,200,50,100,100,100,500,50,200,100,50,50,100,100,500,500,200,100,50,500,100,50,200,200,100,500,50,100,500,500,200,200,50,200,500,200,500,100,500,500,100,100"
# Node 21 random conversational traffic
dtnsim.node[21].app.enable = true
dtnsim.node[21].app.bundlesNumber = "2,2,3,5,3,2,4,2,3,2,2,5,5,5,3,5,4,2,1,2,2,3,3,2,2,2,4,5,4,5,5,3,1,4,1,4,3,2,5,4,1,5,1,4,3,5,2,5,2,5,5,2,3,1,5,1,3,4,3,5,5,3,4,1,1,5,5,2,1,4,1,3,5,4,3,5,2,2,4,2,4,2,4,4,3,4,5,5,5,3,2,3,4,4,1,4,3,4,2,5"
dtnsim.node[21].app.start = "34,20,19,10,69,83,52,42,23,82,92,11,76,22,64,49,41,58,84,72,51,42,47,68,8,93,100,61,11,24,5,19,81,64,67,68,36,82,99,14,73,26,61,32,48,92,85,82,2,9,76,71,40,12,81,8,66,85,18,19,15,50,69,47,74,54,38,57,24,19,83,16,96,68,66,73,48,54,56,10,2,93,48,32,96,85,62,59,81,84,95,8,7,39,12,72,56,62,20,94"
dtnsim.node[21].app.destinationEid = "20,20,20,20,20,20,20,20,20,20,20,20,20,20,20,20,20,20,20,20,20,20,20,20,20,20,20,20,20,20,20,20,20,20,20,20,20,22,22,22,22,22,22,22,22,22,22,22,22,22,22,22,22,22,22,22,22,22,22,22,22,22,22,22,22,22,22,22,22,22,22,22,22,22,22,22,22,22,22,22,22,22,22,22,22,22,22,22,22,22,22,22,22,22,22,22,22,22,22,22"
dtnsim.node[21].app.size = "100,200,100,50,100,500,200,500,500,500,500,100,200,500,500,500,100,100,50,50,100,50,50,200,200,50,50,100,500,200,200,200,100,50,50,50,200,50,50,500,100,100,100,200,200,200,50,100,200,200,100,500,200,500,200,50,500,50,200,100,200,50,50,50,100,500,200,50,500,50,100,200,50,500,500,100,100,500,500,50,200,500,200,50,100,100,100,500,500,100,500,50,200,200,50,500,500,50,200,100"
# Node 22 random conversational traffic
dtnsim.node[22].app.enable = true
dtnsim.node[22].app.bundlesNumber = "2,2,3,5,3,5,2,5,1,3,2,4,5,2,2,4,3,1,5,2,5,2,5,2,3,4,2,3,2,1,3,5,5,5,3,3,3,1,5,1,4,1,1,2,2,5,5,3,2,5,3,2,5,5,2,5,1,2,3,4,3,1,1,2,3,2,2,4,2,5,5,4,4,4,5,4,2,1,2,2,2,2,5,5,2,1,2,2,1,4,2,1,4,1,2,2,4,5,5,5"
dtnsim.node[22].app.start = "90,100,23,74,33,47,19,16,76,17,76,62,32,71,67,81,56,57,20,10,39,89,85,98,11,44,14,73,62,95,24,96,43,34,18,27,9,35,55,58,11,9,32,10,57,49,49,63,79,64,96,36,26,57,1,67,44,72,1,54,23,91,78,97,3,26,95,14,55,11,25,90,92,17,79,26,97,46,76,90,89,83,90,94,94,55,40,63,24,52,65,2,47,63,94,70,80,39,76,68"
dtnsim.node[22].app.destinationEid = "21,21,21,21,21,21,21,21,21,21,21,21,21,21,21,21,21,21,21,21,21,21,21,21,21,21,21,21,21,21,23,23,23,23,23,23,23,23,23,23,23,23,23,23,23,23,23,23,23,23,23,23,23,23,23,23,23,23,23,23,23,23,23,23,23,23,23,23,23,23,23,23,23,23,23,23,23,23,23,23,23,23,23,23,23,23,23,23,23,23,23,23,23,23,23,23,23,23,23,23"