[General]
network = src.dtnsim										
repeat = 1
allow-object-stealing-on-deletion = true

# Simulation end time
sim-time-limit = 84600s

# Nodes quantity (identifiers (EiDs) matches their index, EiD=0 is ignored)			
dtnsim.nodesNumber = 180
dtnsim.node[*].icon = "satellite"

# Nodes's failure rates
dtnsim.node[*].fault.enable = true
dtnsim.node[*].fault.meanTTF = 90s
dtnsim.node[*].fault.meanTTR = 10s

# Mobility
dtnsim.node[*].hasMobility = true
dtnsim.node[*].norad.satIndex = parentIndex()
dtnsim.node[*].norad.satName = "sat"
**.updateInterval = 20s
**.numOfSats = 180
**.satPerPlane = 15
**.altitude = 540
**.planes = 12
**.phaseOffset = 7

dtnsim.node[*].dtn.routing = "antop"
dtnsim.node[*].dtn.printRoutingDebug = true

# --- Random Traffic Configuration ---
# Node 1 random conversational traffic
dtnsim.node[1].app.enable = true
dtnsim.node[1].app.bundlesNumber = "1,5,4,4,3,3,3,1,3,2,1,1,1,1,3,5,3,3,4,3,5,4,1,3,5,2,3,5,3,2,4,3,5,2,3,2,4,3,1,2,5,1,3,4,5,3,4,4,4,2,3,3,4,2,4,4,4,1,2,1,3,2,5,2,5,2,3,1,2,3,4,2,5,2,2,5,5,5,1,1,4,1,5,3,5,2,3,1,2,1,5,4,1,3,1,4,4,2,2,1"
dtnsim.node[1].app.start = "63,19,64,12,33,82,87,69,48,6,43,79,32,22,87,5,3,20,28,10,72,36,72,73,63,41,79,95,71,77,34,38,51,70,31,32,8,88,92,34,18,62,96,66,56,6,63,23,47,61,22,39,99,9,96,94,61,33,67,83,59,89,96,71,43,77,13,34,92,73,63,75,15,63,16,59,47,12,61,92,97,51,68,92,80,75,51,37,18,90,48,35,25,54,20,70,100,16,87,22"
dtnsim.node[1].app.destinationEid = "2,2,2,2,2,2,2,2,2,2,2,2,2,2,2,2,2,2,2,2,2,2,2,2,2,2,2,2,2,2,2,2,2,2,2,2,2,2,2,2,2,2,2,2,2,2,2,2,2,2,2,2,2,2,2,2,2,2,2,2,2,2,2,2,2,2,2,2,2,2,2,2,2,2,2,2,2,2,2,2,2,2,2,2,2,2,2,2,2,2,2,2,2,2,2,2,2,2,2,2"
dtnsim.node[1].app.size = "100,500,100,200,200,50,200,50,50,100,50,50,200,200,50,500,100,200,50,50,50,500,500,100,200,50,100,50,500,100,50,50,200,100,50,50,100,200,200,200,50,500,200,50,100,100,50,200,50,50,200,500,100,500,200,500,50,100,50,500,500,50,100,500,50,50,50,100,100,500,100,50,500,200,200,200,50,200,50,50,50,100,200,200,50,100,50,50,500,500,50,500,200,50,200,100,100,200,200,200"
# Node 2 random conversational traffic
dtnsim.node[2].app.enable = true
dtnsim.node[2].app.bundlesNumber = "3,4,3,5,5,1,2,5,1,2,5,1,5,5,1,2,2,5,2,1,2,3,3,3,1,4,4,2,3,4,3,5,3,1,2,4,1,3,5,3,5,1,3,5,2,5,3,4,1,5,2,3,3,5,3,4,4,5,1,2,5,1,5,1,3,3,1,2,2,5,2,3,5,2,2,2,2,2,1,3,3,3,1,1,2,4,4,4,5,1,1,2,5,3,3,3,1,1,3,2"
dtnsim.node[2].app.start = "71,21,69,15,87,50,11,85,27,93,4,38,73,64,97,76,80,47,57,79,32,42,37,20,72,70,58,30,50,71,24,48,14,100,100,64,43,90,90,100,45,41,79,79,70,26,60,98,59,96,81,76,58,43,28,51,25,76,22,93,93,17,54,43,82,15,16,94,90,28,65,84,73,94,72,84,27,34,5,45,51,80,4,95,38,61,28,66,13,38,72,34,16,80,73,72,68,45,28,15"
dtnsim.node[2].app.destinationEid = "1,1,1,1,1,1,1,1,1,1,1,1,1,1,1,1,1,1,1,1,1,1,1,1,1,1,1,1,1,1,1,1,1,1,1,1,1,1,1,1,1,1,1,1,1,1,1,1,1,1,1,1,1,1,1,1,1,1,1,1,3,3,3,3,3,3,3,3,3,3,3,3,3,3,3,3,3,3,3,3,3,3,3,3,3,3,3,3,3,3,3,3,3,3,3,3,3,3,3,3"
dtnsim.node[2].app.size = "500,100,500,50,200,50,100,50,100,500,200,500,50,100,500,500,100,500,500,100,100,500,200,500,200,500,200,500,100,200,500,200,500,200,50,500,50,200,500,50,500,50,100,50,500,200,200,100,500,50,50,500,50,50,100,500,200,100,100,500,50,500,50,100,100,200,200,200,100,50,500,50,200,500,200,500,50,200,50,500,50,50,200,50,100,100,100,200,500,100,100,500,50,200,200,50,200,500,500,100"
# Node 3 random conversational traffic
dtnsim.node[3].app.enable = true
dtnsim.node[3].app.bundlesNumber = "5,5,5,4,4,1,3,2,4,5,5,5,1,1,1,3,2,3,2,1,5,3,3,4,1,3,5,1,1,5,3,3,5,5,2,3,4,3,2,3,2,4,4,1,3,2,5,4,1,5,3,2,2,5,1,2,4,1,3,4,1,5,3,1,1,2,5,5,4,2,5,3,3,4,3,1,3,3,4,3,4,3,2,3,5,4,4,3,3,4,3,3,2,5,4,5,1,5,3,5"
dtnsim.node[3].app.start = "96,63,46,84,21,98,92,71,74,81,50,61,6,98,39,62,36,72,17,42,76,37,22,77,70,29,22,88,25,65,12,45,7,9,36,29,17,52,24,30,99,62,9,17,26,51,46,92,60,30,93,74,32,14,61,58,41,66,24,89,59,53,54,75,77,43,6,83,13,21,62,57,75,35,47,18,38,38,98,18,85,77,46,97,61,69,93,47,84,43,25,78,82,50,31,58,45,40,99,5"
dtnsim.node[3].app.destinationEid = "2,2,2,2,2,2,2,2,2,2,2,2,2,2,2,2,2,2,2,2,2,2,2,2,2,2,2,4,4,4,4,4,4,4,4,4,4,4,4,4,4,4,4,4,4,4,4,4,4,4,4,4,4,4,4,4,4,4,4,4,4,4,4,4,4,4,4,4,4,4,4,4,4,4,4,4,4,4,4,4,4,4,4,4,4,4,4,4,4,4,4,4,4,4,4,4,4,4,4,4"
dtnsim.node[3].app.size = "50,100,100,500,50,200,200,100,500,200,100,500,50,500,500,100,50,50,50,500,100,200,500,200,200,50,50,500,50,100,200,50,100,500,500,100,200,200,500,200,200,200,100,100,500,200,200,50,500,50,100,200,200,50,500,200,100,50,200,200,500,50,100,100,500,100,500,200,200,50,500,50,500,50,200,100,500,100,50,100,50,100,50,50,50,100,200,500,500,50,200,500,200,100,500,100,500,500,100,50"
# Node 4 random conversational traffic
dtnsim.node[4].app.enable = true
dtnsim.node[4].app.bundlesNumber = "4,2,2,5,1,5,4,5,4,4,1,1,1,1,5,1,2,5,3,5,1,5,5,1,4,1,1,5,2,3,1,5,4,4,3,3,5,4,1,2,2,5,2,4,2,3,1,4,5,3,1,5,3,2,2,3,1,1,4,4,3,1,5,3,2,3,4,1,1,3,2,5,2,3,4,3,1,4,4,1,5,2,1,1,5,3,4,4,5,5,4,2,2,2,3,3,3,3,4,3"
dtnsim.node[4].app.start = "91,28,70,19,16,46,27,58,29,100,14,59,93,96,84,35,48,28,58,60,11,90,20,25,64,77,52,27,39,21,84,47,66,95,53,93,85,89,57,100,11,11,98,11,68,34,16,67,42,38,40,76,28,45,19,40,79,14,12,71,31,20,91,42,44,73,9,81,69,6,100,14,56,20,24,68,26,44,55,89,16,50,6,34,99,20,14,46,60,60,80,47,97,97,39,59,49,77,3,92"
dtnsim.node[4].app.destinationEid = "3,3,3,3,3,3,3,3,3,3,3,3,3,3,3,3,3,3,3,3,3,3,3,3,3,3,3,3,3,3,3,3,3,3,3,3,3,3,3,3,3,5,5,5,5,5,5,5,5,5,5,5,5,5,5,5,5,5,5,5,5,5,5,5,5,5,5,5,5,5,5,5,5,5,5,5,5,5,5,5,5,5,5,5,5,5,5,5,5,5,5,5,5,5,5,5,5,5,5,5"
dtnsim.node[4].app.size = "200,100,50,200,100,100,500,500,50,50,200,200,200,500,50,50,100,50,500,200,500,500,500,50,500,200,50,50,200,50,50,50,200,500,200,50,100,100,500,200,500,50,500,200,50,200,200,100,200,100,500,200,500,500,100,100,500,50,200,200,50,100,50,500,500,50,100,200,200,50,200,500,100,50,500,200,50,200,200,50,50,500,100,50,50,200,500,200,500,200,500,100,100,100,500,200,100,50,500,100"
# Node 5 random conversational traffic
dtnsim.node[5].app.enable = true
dtnsim.node[5].app.bundlesNumber = "3,2,5,2,1,1,2,5,4,1,2,4,3,1,2,3,5,2,1,5,3,2,3,2,5,1,5,2,3,4,2,1,3,3,1,4,2,3,2,4,5,4,3,1,4,5,1,2,1,5,1,2,3,3,2,1,1,5,3,1,4,1,5,2,3,4,2,2,5,2,4,1,3,5,3,4,5,1,5,1,2,2,3,1,1,3,5,3,5,2,5,4,4,5,1,1,3,1,4,4"
dtnsim.node[5].app.start = "21,20,78,23,51,48,82,35,28,88,15,22,32,29,43,53,14,100,19,57,22,76,47,65,21,100,27,20,65,70,100,99,48,69,87,3,74,87,18,68,50,59,32,86,1,48,72,44,90,78,58,30,100,73,38,67,11,19,26,21,83,74,50,47,17,3,3,25,90,85,15,91,87,77,1,68,16,38,86,92,77,68,56,3,44,65,3,41,1,50,11,74,98,5,32,92,20,26,24,63"
dtnsim.node[5].app.destinationEid = "4,4,4,4,4,4,4,4,4,4,4,4,4,4,4,4,4,4,4,4,4,4,4,4,4,4,4,4,4,4,4,4,4,4,4,6,6,6,6,6,6,6,6,6,6,6,6,6,6,6,6,6,6,6,6,6,6,6,6,6,6,6,6,6,6,6,6,6,6,6,6,6,6,6,6,6,6,6,6,6,6,6,6,6,6,6,6,6,6,6,6,6,6,6,6,6,6,6,6,6"
dtnsim.node[5].app.size = "100,200,100,50,500,200,200,500,200,100,100,50,100,50,500,500,200,50,100,100,500,200,500,500,50,100,200,500,50,200,100,200,500,50,50,200,50,500,500,500,50,50,200,500,200,100,200,50,50,200,100,100,100,500,500,200,200,200,50,500,50,200,100,200,50,100,100,100,500,100,50,200,50,500,500,500,100,500,500,50,500,100,100,200,50,100,500,500,500,100,500,500,50,100,500,100,50,100,50,50"
# Node 6 random conversational traffic
dtnsim.node[6].app.enable = true
dtnsim.node[6].app.bundlesNumber = "4,3,5,5,5,4,3,3,3,3,1,3,5,2,1,2,5,4,2,5,1,2,4,1,2,4,1,4,4,1,4,5,5,3,5,1,5,3,3,1,5,4,4,5,3,1,2,2,4,1,1,4,3,1,5,3,3,2,2,4,1,4,1,4,5,3,5,2,3,2,3,4,2,4,4,5,5,1,1,1,1,3,5,2,2,2,4,5,3,4,3,5,5,4,4,2,3,2,3,1"
dtnsim.node[6].app.start = "4,78,19,76,54,90,52,73,54,98,67,37,100,45,71,15,25,36,30,92,55,10,28,89,20,92,95,72,42,81,74,7,53,76,99,34,25,32,30,2,89,47,58,13,12,15,69,29,49,51,44,13,62,51,13,23,61,41,99,66,97,38,17,87,56,65,44,46,28,31,39,92,65,59,52,82,94,52,3,39,1,58,49,50,94,39,86,47,61,57,81,10,44,86,40,81,21,53,72,18"
dtnsim.node[6].app.destinationEid = "5,5,5,5,5,5,5,5,5,5,5,5,5,5,5,5,5,5,5,5,5,5,5,5,5,5,5,5,5,5,5,5,5,5,5,5,5,5,7,7,7,7,7,7,7,7,7,7,7,7,7,7,7,7,7,7,7,7,7,7,7,7,7,7,7,7,7,7,7,7,7,7,7,7,7,7,7,7,7,7,7,7,7,7,7,7,7,7,7,7,7,7,7,7,7,7,7,7,7,7"
dtnsim.node[6].app.size = "100,50,200,200,50,500,50,200,50,500,200,200,500,200,500,200,500,100,500,200,500,100,100,500,200,50,500,200,200,50,500,50,200,100,500,100,50,50,100,500,500,200,500,200,50,500,50,200,200,100,100,100,500,100,100,200,200,50,50,100,500,100,100,500,200,500,500,50,500,50,200,50,200,100,100,200,500,50,50,100,50,100,100,200,500,50,50,100,500,200,50,500,500,50,200,500,50,200,200,500"
# Node 7 random conversational traffic
dtnsim.node[7].app.enable = true
dtnsim.node[7].app.bundlesNumber = "4,3,2,2,3,1,3,4,5,3,5,2,5,3,2,4,3,4,3,2,1,1,3,2,3,4,1,5,3,5,3,4,1,1,2,4,4,4,3,1,1,5,1,2,3,2,3,4,4,1,4,5,2,4,5,3,4,4,3,4,5,4,3,4,4,1,3,1,4,1,4,5,2,2,4,2,5,3,3,5,2,2,3,4,3,4,4,3,5,3,3,3,3,5,2,5,5,5,3,2"
dtnsim.node[7].app.start = "31,8,97,67,23,21,78,31,59,54,18,18,28,51,100,72,59,47,56,43,95,66,59,88,12,59,58,99,44,91,45,46,29,58,79,23,16,22,64,10,27,50,47,63,19,60,78,24,43,93,5,42,32,22,86,35,48,99,46,6,58,35,99,34,94,1,22,80,82,12,64,64,37,41,14,7,33,31,91,74,33,26,53,48,71,50,34,22,37,23,12,81,85,41,23,76,62,44,86,45"
dtnsim.node[7].app.destinationEid = "6,6,6,6,6,6,6,6,6,6,6,6,6,6,6,6,6,6,6,6,6,6,6,6,6,6,6,6,6,6,6,6,6,6,6,6,8,8,8,8,8,8,8,8,8,8,8,8,8,8,8,8,8,8,8,8,8,8,8,8,8,8,8,8,8,8,8,8,8,8,8,8,8,8,8,8,8,8,8,8,8,8,8,8,8,8,8,8,8,8,8,8,8,8,8,8,8,8,8,8"
dtnsim.node[7].app.size = "500,200,50,50,100,100,100,50,50,100,200,200,100,50,100,200,200,200,200,200,100,100,50,50,50,50,500,100,50,200,200,500,200,50,500,200,200,100,100,50,500,100,500,100,500,500,100,500,50,500,50,200,200,200,50,500,200,500,200,100,500,100,500,50,500,50,50,50,50,500,500,100,100,50,50,200,200,50,200,100,100,200,50,200,200,50,50,200,50,500,200,500,100,50,100,50,200,100,200,200"
# Node 8 random conversational traffic
dtnsim.node[8].app.enable = true
dtnsim.node[8].app.bundlesNumber = "4,3,3,2,1,4,5,3,5,2,4,1,3,1,3,4,3,3,1,4,4,1,2,1,2,4,5,5,2,5,5,3,2,1,4,5,5,2,3,4,4,4,1,1,1,4,5,1,2,3,5,3,2,4,3,2,3,4,2,4,3,3,1,4,5,4,1,3,1,4,4,3,4,1,4,2,5,3,2,3,5,4,4,4,2,5,2,2,3,2,4,2,5,2,4,2,5,2,1,5"
dtnsim.node[8].app.start = "24,23,15,52,53,47,99,48,26,95,68,38,100,35,96,7,29,88,72,17,8,40,84,43,32,50,75,41,29,28,19,49,85,71,92,7,93,4,61,7,18,72,52,83,89,25,57,1,41,93,69,25,11,3,33,95,14,22,25,8,48,6,64,38,94,14,13,42,34,28,55,31,97,86,75,53,70,11,19,11,85,79,52,24,35,30,63,6,31,43,63,7,23,72,5,30,39,53,40,60"
dtnsim.node[8].app.destinationEid = "7,7,7,7,7,7,7,7,7,7,7,7,7,7,7,7,7,7,7,7,7,7,7,7,7,7,7,7,7,7,7,7,7,7,7,9,9,9,9,9,9,9,9,9,9,9,9,9,9,9,9,9,9,9,9,9,9,9,9,9,9,9,9,9,9,9,9,9,9,9,9,9,9,9,9,9,9,9,9,9,9,9,9,9,9,9,9,9,9,9,9,9,9,9,9,9,9,9,9,9"
dtnsim.node[8].app.size = "100,500,50,200,100,500,100,50,200,200,50,500,500,200,100,100,100,100,100,200,100,100,200,500,200,200,200,100,50,100,50,100,500,500,100,200,500,200,200,50,50,200,200,100,500,200,50,200,50,200,50,100,500,100,200,200,500,50,500,200,500,500,50,500,100,500,500,200,200,50,500,200,50,500,50,200,50,500,200,500,500,500,50,50,200,100,500,50,200,200,100,200,200,100,200,500,500,500,500,500"
# Node 9 random conversational traffic
dtnsim.node[9].app.enable = true
dtnsim.node[9].app.bundlesNumber = "3,4,4,3,1,1,1,5,1,5,2,1,5,5,4,1,2,2,1,5,2,4,5,5,4,1,1,2,2,5,3,1,1,2,2,4,2,1,5,2,2,2,2,5,4,2,2,4,5,5,5,5,5,5,2,5,2,1,4,2,2,1,5,1,1,4,2,3,5,3,3,5,1,2,4,5,1,3,4,5,1,2,1,5,4,2,3,1,1,4,1,2,2,1,5,4,4,1,2,1"
dtnsim.node[9].app.start = "12,6,28,76,99,27,63,79,19,13,41,97,20,26,10,58,17,19,51,44,35,98,84,55,72,13,17,88,57,42,32,68,16,47,64,7,46,66,89,92,10,29,27,14,6,19,71,24,43,95,80,60,76,88,31,4,64,1,44,82,28,19,28,99,73,7,22,12,90,97,24,81,31,73,86,23,20,69,46,20,29,14,20,85,98,46,69,65,91,20,42,13,79,48,29,22,4,62,93,14"
dtnsim.node[9].app.destinationEid = "8,8,8,8,8,8,8,8,8,8,8,8,8,8,8,8,8,8,8,8,8,8,8,8,8,8,8,8,8,8,8,8,8,8,8,8,8,8,10,10,10,10,10,10,10,10,10,10,10,10,10,10,10,10,10,10,10,10,10,10,10,10,10,10,10,10,10,10,10,10,10,10,10,10,10,10,10,10,10,10,10,10,10,10,10,10,10,10,10,10,10,10,10,10,10,10,10,10,10,10"
dtnsim.node[9].app.size = "500,200,100,100,100,100,50,50,50,100,500,50,200,200,50,100,500,200,500,100,50,500,500,200,50,100,100,500,200,50,500,500,500,500,500,200,200,100,50,100,500,100,100,100,200,500,50,200,100,500,500,100,200,200,50,500,500,50,100,500,500,50,200,50,200,100,100,200,200,500,500,200,100,50,200,100,50,200,50,500,200,50,50,200,100,50,50,50,500,50,50,50,200,500,500,100,500,50,50,50"
# Node 10 random conversational traffic
dtnsim.node[10].app.enable = true
dtnsim.node[10].app.bundlesNumber = "5,4,5,3,3,4,3,5,2,5,4,3,3,3,4,5,5,2,4,1,5,1,3,1,4,3,3,4,1,5,4,3,5,3,3,5,5,2,5,3,4,4,3,2,2,5,2,1,3,2,2,2,1,1,3,5,3,4,4,3,1,3,2,3,5,3,3,4,5,5,4,3,3,3,5,3,5,5,1,1,4,4,3,4,3,5,4,4,1,1,1,5,4,1,1,2,4,5,3,2"
dtnsim.node[10].app.start = "17,17,20,27,53,97,84,62,83,93,32,8,4,48,29,35,24,18,99,38,74,23,54,23,21,95,99,76,47,84,58,31,31,12,65,97,24,86,65,55,42,22,69,78,46,82,46,76,16,32,81,97,72,88,74,3,75,99,72,79,60,75,69,42,59,78,33,90,89,12,63,65,28,63,9,47,7,45,29,53,3,9,55,89,28,18,93,69,32,100,78,85,31,7,40,84,72,60,79,53"
dtnsim.node[10].app.destinationEid = "9,9,9,9,9,9,9,9,9,9,9,9,9,9,9,9,9,9,9,9,9,9,9,9,9,9,9,9,9,9,9,9,9,9,9,9,9,11,11,11,11,11,11,11,11,11,11,11,11,11,11,11,11,11,11,11,11,11,11,11,11,11,11,11,11,11,11,11,11,11,11,11,11,11,11,11,11,11,11,11,11,11,11,11,11,11,11,11,11,11,11,11,11,11,11,11,11,11,11,11"
dtnsim.node[10].app.size = "500,100,500,500,500,200,200,200,500,200,500,200,50,100,100,200,100,50,50,500,100,200,200,100,100,200,100,50,100,50,50,100,100,200,50,50,200,500,50,200,200,50,100,500,500,200,500,50,50,200,100,200,50,200,500,100,500,500,100,100,200,200,50,50,500,200,100,500,500,200,500,50,50,100,200,50,500,100,500,50,50,50,200,100,100,50,200,200,500,500,50,100,500,50,100,500,100,200,200,50"
# Node 11 random conversational traffic
dtnsim.node[11].app.enable = true
dtnsim.node[11].app.bundlesNumber = "1,1,3,5,1,5,5,4,2,3,5,5,5,5,1,5,5,2,3,4,1,1,3,1,4,5,3,1,3,3,4,3,3,5,3,1,1,4,2,4,5,2,1,2,3,3,2,4,5,5,2,1,1,4,2,5,2,1,4,3,2,1,1,1,1,2,4,1,3,1,5,1,5,2,5,1,2,3,4,5,1,1,4,1,1,5,4,1,1,2,5,4,5,3,2,1,2,1,1,3"
dtnsim.node[11].app.start = "69,44,28,77,50,87,90,73,89,77,5,79,100,81,69,78,67,80,38,71,8,61,13,94,20,75,100,92,36,11,87,74,28,77,77,60,37,80,17,88,60,24,52,31,78,80,54,50,80,93,20,55,31,61,63,86,45,30,21,66,72,22,65,52,51,48,85,40,70,70,87,70,27,77,86,59,10,45,66,14,39,10,68,35,100,33,20,35,41,75,41,11,30,52,68,91,20,10,49,62"
dtnsim.node[11].app.destinationEid = "10,10,10,10,10,10,10,10,10,10,10,10,10,10,10,10,10,10,10,10,10,10,10,10,10,10,10,10,10,10,10,10,12,12,12,12,12,12,12,12,12,12,12,12,12,12,12,12,12,12,12,12,12,12,12,12,12,12,12,12,12,12,12,12,12,12,12,12,12,12,12,12,12,12,12,12,12,12,12,12,12,12,12,12,12,12,12,12,12,12,12,12,12,12,12,12,12,12,12,12"
dtnsim.node[11].app.size = "500,50,500,500,500,500,200,500,50,50,200,200,500,100,200,100,100,200,100,50,500,500,50,100,500,200,100,500,200,200,500,100,100,100,50,100,100,50,500,500,500,100,500,50,100,500,500,500,500,50,100,100,200,100,500,200,500,50,50,500,200,100,200,50,200,500,100,500,100,50,50,50,100,100,500,100,100,50,50,100,50,50,200,200,100,100,50,100,500,50,200,50,200,500,500,500,500,50,200,50"
# Node 12 random conversational traffic
dtnsim.node[12].app.enable = true
dtnsim.node[12].app.bundlesNumber = "1,4,4,3,1,1,1,1,1,1,1,3,5,4,3,5,3,2,2,3,2,4,3,4,5,2,2,1,5,1,4,4,3,2,1,1,4,4,4,2,3,3,2,3,1,1,5,4,4,1,2,4,5,2,3,3,4,5,2,4,5,2,3,2,3,5,4,3,5,3,1,4,4,4,5,2,4,2,5,2,3,5,4,5,4,3,3,5,4,4,1,2,5,1,2,5,3,1,3,2"
dtnsim.node[12].app.start = "34,81,62,46,25,65,62,35,64,82,28,64,67,75,23,73,49,41,79,74,93,77,35,81,60,55,20,70,100,37,23,48,82,42,36,72,95,19,51,26,73,29,46,88,90,36,60,34,96,22,46,96,61,43,85,90,31,34,40,24,56,49,29,35,90,100,40,50,89,53,36,39,71,54,99,25,62,59,51,90,34,14,11,91,47,52,34,51,68,12,91,39,95,91,19,14,22,80,76,38"
dtnsim.node[12].app.destinationEid = "11,11,11,11,11,11,11,11,11,11,11,11,11,11,11,11,11,11,11,11,11,11,11,11,11,11,11,11,11,11,11,11,11,11,11,11,11,11,11,13,13,13,13,13,13,13,13,13,13,13,13,13,13,13,13,13,13,13,13,13,13,13,13,13,13,13,13,13,13,13,13,13,13,13,13,13,13,13,13,13,13,13,13,13,13,13,13,13,13,13,13,13,13,13,13,13,13,13,13,13"
dtnsim.node[12].app.size = "200,100,100,200,50,50,200,50,500,100,500,100,200,200,500,50,200,100,50,100,200,100,500,200,50,50,100,200,100,50,100,100,50,200,100,500,100,500,100,500,500,100,500,200,200,200,500,100,100,500,50,100,50,100,100,100,50,100,50,100,500,200,200,50,50,500,200,500,100,200,200,200,100,50,50,100,100,500,200,100,100,50,50,500,100,50,100,100,500,100,50,50,200,50,100,500,500,100,50,500"
# Node 13 random conversational traffic
dtnsim.node[13].app.enable = true
dtnsim.node[13].app.bundlesNumber = "5,4,5,3,2,5,4,1,1,3,5,2,4,3,1,1,3,2,5,3,3,5,5,3,1,4,1,5,1,3,4,1,3,4,2,1,1,1,4,1,2,3,3,1,3,1,4,3,3,3,4,4,3,1,1,2,5,4,1,1,4,4,2,3,4,4,3,3,3,2,3,1,4,4,1,5,3,5,4,4,3,1,2,5,3,1,3,2,4,4,4,1,3,5,4,2,2,1,4,3"
dtnsim.node[13].app.start = "83,34,50,93,61,98,27,99,63,45,91,43,98,100,46,54,59,46,44,73,100,69,61,99,22,50,61,57,92,48,100,94,29,29,87,39,61,60,96,35,56,81,82,27,21,69,50,39,72,67,60,14,91,18,23,56,35,60,67,23,87,40,96,38,31,38,88,47,59,76,97,96,43,12,80,85,58,33,74,60,24,39,63,28,89,12,86,48,71,19,38,26,87,46,35,95,4,26,75,97"
dtnsim.node[13].app.destinationEid = "12,12,12,12,12,12,12,12,12,12,12,12,12,12,12,12,12,12,12,12,12,12,12,12,12,12,12,12,12,12,12,12,12,12,12,12,14,14,14,14,14,14,14,14,14,14,14,14,14,14,14,14,14,14,14,14,14,14,14,14,14,14,14,14,14,14,14,14,14,14,14,14,14,14,14,14,14,14,14,14,14,14,14,14,14,14,14,14,14,14,14,14,14,14,14,14,14,14,14,14"
dtnsim.node[13].app.size = "500,500,50,500,200,100,100,50,50,100,50,100,100,100,500,50,50,500,500,100,50,50,200,100,200,50,100,200,500,50,50,100,50,100,100,100,50,500,200,100,50,500,100,200,50,500,100,500,100,500,100,50,200,100,500,50,50,500,100,50,500,200,100,50,100,100,50,500,50,200,500,500,500,50,200,100,200,500,200,50,200,50,100,50,500,500,100,500,500,100,50,100,200,200,200,500,500,200,500,500"
# Node 14 random conversational traffic
dtnsim.node[14].app.enable = true
dtnsim.node[14].app.bundlesNumber = "4,2,5,3,1,3,1,5,5,5,5,4,4,2,5,1,4,1,4,3,2,4,4,2,3,5,4,3,1,3,5,1,2,5,4,4,2,3,2,3,1,2,5,3,2,1,3,4,4,3,1,5,5,2,1,1,3,5,4,4,4,2,2,5,5,2,2,2,5,3,3,2,4,2,3,4,1,4,4,1,1,4,4,2,2,4,1,2,5,4,4,1,2,4,3,3,2,3,5,2"
dtnsim.node[14].app.start = "71,68,70,53,74,71,64,18,65,72,92,100,47,93,52,62,77,100,97,49,13,81,92,36,80,69,49,65,38,91,87,74,47,35,53,38,9,84,98,30,92,85,4,88,47,74,32,10,29,34,48,2,47,23,21,72,33,7,31,58,10,81,51,98,97,63,24,77,67,52,50,63,22,74,68,98,51,23,51,58,91,35,1,28,26,92,7,17,79,59,14,52,23,45,69,56,47,91,42,88"
dtnsim.node[14].app.destinationEid = "13,13,13,13,13,13,13,13,13,13,13,13,13,13,13,13,13,13,13,13,13,13,13,13,13,13,13,13,13,13,13,13,13,13,13,13,13,13,13,15,15,15,15,15,15,15,15,15,15,15,15,15,15,15,15,15,15,15,15,15,15,15,15,15,15,15,15,15,15,15,15,15,15,15,15,15,15,15,15,15,15,15,15,15,15,15,15,15,15,15,15,15,15,15,15,15,15,15,15,15"
dtnsim.node[14].app.size = "100,50,50,500,200,500,100,50,50,500,200,200,200,50,100,500,50,100,50,500,500,100,50,500,50,100,100,200,50,500,500,200,200,200,50,50,200,500,50,500,200,200,500,200,50,50,200,500,50,100,50,500,200,500,200,50,200,100,500,50,200,100,50,50,500,200,50,50,100,500,50,100,50,500,200,100,100,500,100,50,500,100,200,100,500,100,50,200,200,500,100,100,100,50,50,500,200,100,500,200"
# Node 15 random conversational traffic
dtnsim.node[15].app.enable = true
dtnsim.node[15].app.bundlesNumber = "3,2,5,3,3,3,1,1,5,1,5,2,1,3,3,1,4,2,5,4,4,2,2,5,3,3,2,4,3,5,1,1,3,2,1,1,2,1,1,5,3,1,1,4,5,1,2,4,3,3,2,4,2,3,5,2,5,4,2,2,5,2,1,5,3,1,4,3,4,2,3,2,2,4,3,1,5,4,5,1,4,3,5,4,2,4,2,2,2,5,3,5,4,3,2,5,5,1,4,4"
dtnsim.node[15].app.start = "38,6,96,31,55,56,22,81,38,60,18,89,54,98,27,71,75,75,99,55,96,9,38,35,100,27,61,28,50,64,56,91,45,57,25,76,33,56,9,98,88,57,32,13,72,41,42,54,22,85,20,48,90,56,50,73,34,27,80,40,83,43,74,81,77,27,84,90,50,56,84,58,37,39,3,73,50,76,93,18,43,100,3,79,29,49,2,34,5,80,6,49,21,45,10,7,69,17,35,34"
dtnsim.node[15].app.destinationEid = "14,14,14,14,14,14,14,14,14,14,14,14,14,14,14,14,14,14,14,14,14,14,14,14,14,14,14,14,14,14,16,16,16,16,16,16,16,16,16,16,16,16,16,16,16,16,16,16,16,16,16,16,16,16,16,16,16,16,16,16,16,16,16,16,16,16,16,16,16,16,16,16,16,16,16,16,16,16,16,16,16,16,16,16,16,16,16,16,16,16,16,16,16,16,16,16,16,16,16,16"
dtnsim.node[15].app.size = "200,500,100,200,50,50,200,500,200,100,100,50,100,50,100,500,500,100,500,200,50,100,500,50,500,200,50,50,50,50,200,100,200,200,500,100,100,200,500,500,200,500,100,50,100,200,50,50,100,200,50,200,500,100,200,500,500,50,100,100,100,500,50,500,500,200,500,200,100,500,200,200,100,200,500,50,500,200,50,200,100,50,200,500,500,200,50,50,100,200,200,100,100,500,100,50,500,50,100,100"
# Node 16 random conversational traffic
dtnsim.node[16].app.enable = true
dtnsim.node[16].app.bundlesNumber = "3,3,2,5,3,4,4,4,4,4,3,3,1,1,2,3,2,1,5,4,3,2,5,4,4,3,5,5,5,2,1,1,4,4,4,5,4,5,2,3,5,4,3,2,3,2,5,4,4,3,5,1,3,4,4,3,5,1,3,2,5,4,5,3,2,4,3,2,1,2,5,2,2,2,5,1,3,4,4,5,1,3,3,1,1,1,1,3,2,3,1,3,2,4,1,5,3,1,4,2"
dtnsim.node[16].app.start = "62,34,84,65,18,99,65,42,76,45,47,27,55,92,64,80,44,28,83,88,97,63,93,47,47,6,79,59,8,6,84,58,24,49,18,36,36,7,11,10,8,33,48,54,58,80,50,15,25,57,46,80,17,19,61,93,27,35,57,36,5,87,59,91,48,30,68,93,20,96,93,39,73,39,50,91,57,53,56,37,87,69,6,5,5,12,67,79,53,58,74,81,55,9,46,45,28,48,70,48"
dtnsim.node[16].app.destinationEid = "15,15,15,15,15,15,15,15,15,15,15,15,15,15,15,15,15,15,15,15,15,15,15,15,15,15,15,15,15,15,15,15,15,15,15,15,15,17,17,17,17,17,17,17,17,17,17,17,17,17,17,17,17,17,17,17,17,17,17,17,17,17,17,17,17,17,17,17,17,17,17,17,17,17,17,17,17,17,17,17,17,17,17,17,17,17,17,17,17,17,17,17,17,17,17,17,17,17,17,17"
dtnsim.node[16].app.size = "100,50,200,100,500,500,200,200,500,50,100,200,200,100,500,50,100,50,500,50,500,50,500,50,200,500,200,100,500,500,200,100,50,200,50,50,100,500,200,200,50,50,100,200,500,100,100,500,500,200,500,500,100,100,200,100,200,100,100,200,200,100,500,500,500,50,50,200,100,500,500,500,50,100,50,100,500,500,100,100,50,100,500,100,200,500,200,50,500,50,50,500,200,50,200,100,500,200,500,200"
# Node 17 random conversational traffic
dtnsim.node[17].app.enable = true
dtnsim.node[17].app.bundlesNumber = "5,2,2,1,5,4,2,2,5,5,5,2,2,3,4,5,5,5,1,4,5,4,2,1,5,4,2,3,5,4,2,2,5,1,1,5,4,3,2,2,1,1,4,4,4,4,3,4,2,1,3,5,4,5,2,5,5,2,4,1,5,1,4,2,5,5,1,3,1,4,3,3,5,3,2,3,4,3,1,1,1,4,4,2,5,1,1,3,5,4,4,3,5,2,4,2,3,1,3,1"
dtnsim.node[17].app.start = "11,39,51,57,85,53,23,30,65,55,44,8,88,100,39,98,25,98,45,81,51,95,66,62,64,46,96,73,22,74,81,56,76,56,16,56,54,34,51,71,55,84,81,51,71,34,51,22,56,5,99,7,79,17,56,36,47,54,17,53,93,11,80,26,100,70,50,50,58,63,57,63,90,85,95,10,51,7,92,40,90,69,20,76,2,94,19,32,88,26,76,64,93,90,97,81,4,36,35,80"
dtnsim.node[17].app.destinationEid = "16,16,16,16,16,16,16,16,16,16,16,16,16,16,16,16,16,16,16,16,16,16,16,16,16,16,16,16,16,16,16,16,16,16,16,16,16,16,16,16,16,18,18,18,18,18,18,18,18,18,18,18,18,18,18,18,18,18,18,18,18,18,18,18,18,18,18,18,18,18,18,18,18,18,18,18,18,18,18,18,18,18,18,18,18,18,18,18,18,18,18,18,18,18,18,18,18,18,18,18"
dtnsim.node[17].app.size = "200,200,100,500,100,50,500,100,200,100,100,200,200,200,100,500,100,500,100,50,200,500,100,500,500,500,50,200,200,500,500,500,100,200,100,100,50,50,100,50,200,200,200,100,200,100,100,100,500,50,500,100,500,50,50,500,200,50,500,100,500,200,100,100,100,50,50,200,50,50,500,200,200,100,50,50,50,50,500,50,100,200,50,50,500,500,50,500,200,50,100,50,500,100,50,50,200,200,50,50"
# Node 18 random conversational traffic
dtnsim.node[18].app.enable = true
dtnsim.node[18].app.bundlesNumber = "5,2,5,2,5,1,3,1,3,1,1,3,2,4,4,2,1,3,1,3,3,5,2,5,2,3,2,5,2,1,2,4,5,5,3,1,5,5,1,1,5,1,1,4,3,2,2,4,2,3,4,1,1,5,3,1,4,2,3,3,2,3,3,4,1,1,2,1,5,5,1,3,3,4,5,2,2,2,1,3,4,1,1,5,1,5,5,4,3,4,3,3,4,1,1,1,2,5,3,3"
dtnsim.node[18].app.start = "60,41,61,65,15,100,12,85,18,63,41,56,94,12,81,100,52,62,65,63,72,99,16,60,14,100,46,97,85,11,28,82,72,97,99,91,13,40,27,90,11,57,17,48,54,52,24,6,92,78,71,32,60,79,40,14,69,41,12,64,28,6,3,95,76,20,14,33,41,19,81,92,93,3,94,89,51,63,41,35,67,96,58,66,35,20,59,67,27,82,6,81,80,92,92,13,50,57,66,96"
dtnsim.node[18].app.destinationEid = "17,17,17,17,17,17,17,17,17,17,17,17,17,17,17,17,17,17,17,17,17,17,17,17,17,17,17,17,17,17,17,17,17,17,17,17,17,17,19,19,19,19,19,19,19,19,19,19,19,19,19,19,19,19,19,19,19,19,19,19,19,19,19,19,19,19,19,19,19,19,19,19,19,19,19,19,19,19,19,19,19,19,19,19,19,19,19,19,19,19,19,19,19,19,19,19,19,19,19,19"
dtnsim.node[18].app.size = "100,100,50,200,50,200,500,500,500,500,100,500,200,500,50,100,100,100,50,500,50,200,100,50,50,200,200,100,500,50,200,200,500,500,200,100,500,200,500,500,50,50,100,100,100,200,200,50,200,200,500,100,200,200,200,500,50,100,100,500,500,100,200,100,500,100,100,500,100,100,50,50,50,500,200,100,200,50,500,100,50,500,50,200,100,50,200,200,100,200,500,200,100,50,100,200,100,50,500,200"
# Node 19 random conversational traffic
dtnsim.node[19].app.enable = true
dtnsim.node[19].app.bundlesNumber = "5,4,2,4,2,5,1,3,1,1,3,4,2,5,4,1,2,3,3,4,5,2,1,1,3,2,3,1,1,5,2,3,3,3,2,1,4,4,4,5,2,3,4,5,1,1,5,5,2,2,1,5,3,1,1,2,3,4,2,1,1,2,1,4,4,2,3,4,4,1,3,5,5,2,3,5,3,2,3,3,1,1,1,2,5,2,5,3,4,2,5,3,1,5,5,1,4,3,4,1"
dtnsim.node[19].app.start = "36,84,69,87,41,71,15,74,33,15,6,96,21,24,41,44,28,95,45,76,100,66,23,85,84,98,60,59,74,6,45,63,27,49,21,76,2,27,2,80,78,82,50,41,93,32,37,33,75,59,100,9,85,56,30,84,64,15,99,32,100,62,26,30,81,33,66,68,79,15,67,25,78,84,15,69,73,66,18,56,65,75,90,73,13,62,13,6,72,39,77,69,94,42,60,80,24,44,75,96"
dtnsim.node[19].app.destinationEid = "18,18,18,18,18,18,18,18,18,18,18,18,18,18,18,18,18,18,18,18,18,18,18,18,18,18,18,18,18,20,20,20,20,20,20,20,20,20,20,20,20,20,20,20,20,20,20,20,20,20,20,20,20,20,20,20,20,20,20,20,20,20,20,20,20,20,20,20,20,20,20,20,20,20,20,20,20,20,20,20,20,20,20,20,20,20,20,20,20,20,20,20,20,20,20,20,20,20,20,20"
dtnsim.node[19].app.size = "500,50,100,50,200,100,500,100,500,500,200,50,100,500,100,200,100,200,100,50,500,100,500,50,100,500,100,100,50,100,100,200,50,100,500,100,50,50,200,500,50,200,200,500,500,500,500,500,500,100,100,100,100,500,50,100,100,100,500,50,200,500,500,50,100,100,200,200,100,100,200,200,50,100,500,500,100,50,200,50,200,200,50,500,50,500,100,200,100,100,100,500,500,500,50,50,50,100,500,500"
# Node 20 random conversational traffic
dtnsim.node[20].app.enable = true
dtnsim.node[20].app.bundlesNumber = "1,1,3,3,5,5,3,2,4,5,1,5,1,2,1,1,2,4,1,4,1,5,3,1,1,5,1,3,5,5,3,1,5,5,5,2,3,2,1,5,3,2,2,2,2,2,1,2,5,2,4,4,3,2,3,4,2,2,3,3,5,5,5,5,4,4,4,3,4,5,4,1,1,2,2,3,4,1,3,4,1,3,4,3,5,4,1,1,5,3,2,1,1,4,4,3,5,4,2,5"
dtnsim.node[20].app.start = "49,70,28,57,28,86,29,11,87,59,44,98,40,35,100,91,40,93,72,100,100,70,35,39,71,86,83,76,67,95,69,21,79,96,46,88,53,97,19,87,14,70,28,64,81,36,19,85,54,46,18,92,90,11,75,74,46,43,44,13,85,93,42,19,100,50,50,18,98,62,61,58,97,63,47,82,90,57,44,31,14,98,94,30,97,23,86,83,25,73,1,57,12,28,89,2,70,31,65,45"
dtnsim.node[20].app.destinationEid = "19,19,19,19,19,19,19,19,19,19,19,19,19,19,19,19,19,19,19,19,19,19,19,19,19,19,19,19,19,19,19,19,19,19,19,19,19,19,21,21,21,21,21,21,21,21,21,21,21,21,21,21,21,21,21,21,21,21,21,21,21,21,21,21,21,21,21,21,21,21,21,21,21,21,21,21,21,21,21,21,21,21,21,21,21,21,21,21,21,21,21,21,21,21,21,21,21,21,21,21"
dtnsim.node[20].app.size = "200,100,50,200,500,100,200,100,50,50,100,50,50,100,500,50,50,500,100,50,200,500,500,200,500,50,50,100,500,200,50,200,200,200,500,50,50,500,500,500,50,50,200,50,100,200,200,100,500,500,500,50,50,500,50,500,100,200,50,200,50,200,200,50,200,200,50,200,50,100,100,50,50,200,200,50,500,50,50,50,200,200,200,500,100,50,200,500,200,500,100,200,500,100,50,500,100,200,50,200"
# Node 21 random conversational traffic
dtnsim.node[21].app.enable = true
dtnsim.node[21].app.bundlesNumber = "5,4,5,3,4,3,2,3,3,1,1,2,4,3,5,3,5,4,5,2,4,1,2,5,4,4,5,3,1,3,4,1,4,4,2,1,3,1,4,5,3,4,5,1,2,2,5,3,4,2,3,5,4,4,3,1,5,3,2,2,3,2,2,4,3,5,3,5,5,1,3,1,4,5,2,4,1,3,2,4,3,3,1,4,2,1,2,1,1,5,3,1,4,5,5,3,3,2,4,4"
dtnsim.node[21].app.start = "20,73,90,24,23,95,13,85,77,54,46,86,97,28,100,19,100,67,66,65,100,68,56,48,15,33,100,27,96,87,27,80,5,65,22,33,91,5,38,48,70,99,97,70,23,85,60,99,85,79,32,53,19,65,18,42,85,92,69,65,84,31,68,7,42,45,80,52,99,71,24,37,53,73,15,50,53,87,1,48,43,26,62,25,78,88,62,96,50,20,63,93,79,28,80,34,64,94,30,96"
dtnsim.node[21].app.destinationEid = "20,20,20,20,20,20,20,20,20,20,20,20,20,20,20,20,20,20,20,20,20,20,20,20,20,20,20,20,20,20,20,20,20,20,20,20,20,20,20,20,22,22,22,22,22,22,22,22,22,22,22,22,22,22,22,22,22,22,22,22,22,22,22,22,22,22,22,22,22,22,22,22,22,22,22,22,22,22,22,22,22,22,22,22,22,22,22,22,22,22,22,22,22,22,22,22,22,22,22,22"
dtnsim.node[21].app.size = "500,200,50,100,100,50,200,50,200,100,200,500,500,50,500,100,50,50,100,100,200,200,100,100,50,50,200,200,100,200,500,500,500,200,500,200,50,500,500,100,100,50,100,50,50,50,200,500,50,100,100,500,100,50,500,50,100,50,200,100,500,200,100,100,50,500,100,500,50,500,100,200,500,500,50,200,200,50,500,100,50,50,200,200,100,500,500,200,50,50,50,500,500,50,200,500,200,200,500,100"
# Node 22 random conversational traffic
dtnsim.node[22].app.enable = true
dtnsim.node[22].app.bundlesNumber = "5,4,3,3,5,4,3,4,4,3,2,2,5,2,5,1,1,3,5,1,5,2,1,3,3,2,2,3,1,4,4,2,4,2,5,2,2,5,1,1,2,3,5,4,1,3,1,4,3,4,3,2,2,2,3,1,4,2,4,2,3,5,1,2,5,5,5,1,5,1,3,5,3,5,5,4,1,1,5,1,3,3,1,2,4,5,4,5,2,1,4,4,3,3,5,4,4,3,4,2"
dtnsim.node[22].app.start = "77,100,98,75,26,67,37,61,75,19,43,72,71,93,41,73,8,43,54,84,46,23,57,53,72,83,67,98,55,64,100,84,87,43,66,98,99,91,49,77,10,25,14,65,22,22,57,58,24,96,64,55,50,64,11,70,73,57,9,60,7,52,56,88,17,65,27,100,28,19,83,5,53,67,57,84,72,37,1,78,61,100,97,36,88,41,1,10,76,7,33,12,61,14,15,57,93,62,74,53"
dtnsim.node[22].app.destinationEid = "21,21,21,21,21,21,21,21,21,21,21,21,21,21,21,21,21,21,21,21,21,21,21,21,21,21,21,21,21,21,21,21,21,21,21,21,21,23,23,23,23,23,23,23,23,23,23,23,23,23,23,23,23,23,23,23,23,23,23,23,23,23,23,23,23,23,23,23,23,23,23,23,23,23,23,23,23,23,23,23,23,23,23,23,23,23,23,23,23,23,23,23,23,23,23,23,23,23,23,23"