[General]
network = src.dtnsim										
repeat = 1
allow-object-stealing-on-deletion = true

# Simulation end time
sim-time-limit = 84600s

# Nodes quantity (identifiers (EiDs) matches their index, EiD=0 is ignored)			
dtnsim.nodesNumber = 120
dtnsim.node[*].icon = "satellite"

# Nodes's failure rates
dtnsim.node[*].fault.enable = true
dtnsim.node[*].fault.meanTTF = 90s
dtnsim.node[*].fault.meanTTR = 10s

# Mobility
dtnsim.node[*].hasMobility = true
dtnsim.node[*].norad.satIndex = parentIndex()
dtnsim.node[*].norad.satName = "sat"
**.updateInterval = 20s
**.numOfSats = 120
**.satPerPlane = 10
**.altitude = 540
**.planes = 12
**.phaseOffset = 7

dtnsim.node[*].dtn.routing = "antop"
dtnsim.node[*].dtn.printRoutingDebug = true

# --- Random Traffic Configuration ---
# Node 1 random traffic
dtnsim.node[1].app.enable = true
dtnsim.node[1].app.bundlesNumber = "23,13,25,17,15,5,1,1"
dtnsim.node[1].app.start = "4,55,69,66,43,60,18,75"
dtnsim.node[1].app.destinationEid = "69,60,38,8,93,78,77,20"
dtnsim.node[1].app.size = "50,200,500,500,200,50,50,100"
# Node 2 random traffic
dtnsim.node[2].app.enable = true
dtnsim.node[2].app.bundlesNumber = "19,25,10,3,4,2,15,10,9,1,2"
dtnsim.node[2].app.start = "95,77,11,47,72,87,96,81,86,83,17"
dtnsim.node[2].app.destinationEid = "105,69,112,105,58,69,17,108,72,109,18"
dtnsim.node[2].app.size = "500,50,500,50,200,200,50,200,200,50,100"
# Node 3 random traffic
dtnsim.node[3].app.enable = true
dtnsim.node[3].app.bundlesNumber = "8,11,12,1,23,18,18,1,1,3,1,1,1,1"
dtnsim.node[3].app.start = "92,16,21,80,9,91,64,77,49,44,25,56,82,56"
dtnsim.node[3].app.destinationEid = "77,102,52,119,10,96,98,110,117,23,18,106,61,76"
dtnsim.node[3].app.size = "100,200,500,50,50,200,500,200,200,100,500,500,100,50"
# Node 4 random traffic
dtnsim.node[4].app.enable = true
dtnsim.node[4].app.bundlesNumber = "9,18,21,15,3,21,12,1"
dtnsim.node[4].app.start = "3,30,88,49,52,42,65,49"
dtnsim.node[4].app.destinationEid = "46,105,7,73,79,95,44,6"
dtnsim.node[4].app.size = "200,100,50,50,200,500,100,50"
# Node 5 random traffic
dtnsim.node[5].app.enable = true
dtnsim.node[5].app.bundlesNumber = "11,23,5,7,11,5,15,5,6,6,6"
dtnsim.node[5].app.start = "37,58,69,81,65,8,93,27,36,3,6"
dtnsim.node[5].app.destinationEid = "53,8,119,115,70,112,118,64,110,29,23"
dtnsim.node[5].app.size = "50,200,500,500,200,500,200,200,50,100,100"
# Node 6 random traffic
dtnsim.node[6].app.enable = true
dtnsim.node[6].app.bundlesNumber = "5,7,14,12,17,22,18,3,2"
dtnsim.node[6].app.start = "41,41,44,62,6,98,47,82,81"
dtnsim.node[6].app.destinationEid = "35,23,109,31,109,78,90,59,33"
dtnsim.node[6].app.size = "50,100,50,500,50,500,50,100,200"
# Node 7 random traffic
dtnsim.node[7].app.enable = true
dtnsim.node[7].app.bundlesNumber = "11,4,10,5,7,5,23,11,21,2,1"
dtnsim.node[7].app.start = "18,33,43,97,1,50,45,33,10,5,15"
dtnsim.node[7].app.destinationEid = "8,42,20,23,107,116,29,84,14,18,98"
dtnsim.node[7].app.size = "100,200,100,100,200,200,200,50,50,50,500"
# Node 8 random traffic
dtnsim.node[8].app.enable = true
dtnsim.node[8].app.bundlesNumber = "5,23,8,16,13,17,14,1,2,1"
dtnsim.node[8].app.start = "42,48,41,30,21,36,65,6,31,54"
dtnsim.node[8].app.destinationEid = "26,90,30,62,16,21,42,41,32,114"
dtnsim.node[8].app.size = "50,500,100,100,500,100,200,200,200,500"
# Node 9 random traffic
dtnsim.node[9].app.enable = true
dtnsim.node[9].app.bundlesNumber = "24,11,11,25,10,8,5,5,1"
dtnsim.node[9].app.start = "33,88,97,69,1,14,10,6,89"
dtnsim.node[9].app.destinationEid = "35,31,80,5,7,29,103,30,101"
dtnsim.node[9].app.size = "100,200,500,50,500,100,100,500,500"
# Node 10 random traffic
dtnsim.node[10].app.enable = true
dtnsim.node[10].app.bundlesNumber = "19,14,9,4,22,22,9,1"
dtnsim.node[10].app.start = "70,65,27,46,58,51,84,3"
dtnsim.node[10].app.destinationEid = "71,98,31,18,39,42,36,3"
dtnsim.node[10].app.size = "50,100,100,50,500,100,50,50"
# Node 11 random traffic
dtnsim.node[11].app.enable = true
dtnsim.node[11].app.bundlesNumber = "18,4,8,24,8,25,12,1"
dtnsim.node[11].app.start = "94,50,61,88,88,42,99,77"
dtnsim.node[11].app.destinationEid = "1,53,83,92,44,99,112,56"
dtnsim.node[11].app.size = "50,100,500,50,100,100,200,100"
# Node 12 random traffic
dtnsim.node[12].app.enable = true
dtnsim.node[12].app.bundlesNumber = "25,12,14,13,20,14,1,1"
dtnsim.node[12].app.start = "78,38,65,98,58,40,65,38"
dtnsim.node[12].app.destinationEid = "84,24,101,64,68,92,115,42"
dtnsim.node[12].app.size = "200,100,200,500,50,100,50,100"
# Node 13 random traffic
dtnsim.node[13].app.enable = true
dtnsim.node[13].app.bundlesNumber = "10,2,9,13,23,7,1,19,15,1"
dtnsim.node[13].app.start = "20,71,6,77,12,86,10,45,41,67"
dtnsim.node[13].app.destinationEid = "39,36,71,113,76,62,28,112,56,119"
dtnsim.node[13].app.size = "100,100,500,500,100,50,50,200,100,200"
# Node 14 random traffic
dtnsim.node[14].app.enable = true
dtnsim.node[14].app.bundlesNumber = "2,9,22,8,2,11,15,22,8,1"
dtnsim.node[14].app.start = "94,24,53,45,62,54,23,38,53,78"
dtnsim.node[14].app.destinationEid = "63,20,95,47,9,120,27,8,2,102"
dtnsim.node[14].app.size = "100,500,50,100,500,200,100,100,200,500"
# Node 15 random traffic
dtnsim.node[15].app.enable = true
dtnsim.node[15].app.bundlesNumber = "18,1,4,17,19,3,14,13,4,5,2"
dtnsim.node[15].app.start = "99,32,90,40,26,86,48,15,29,85,58"
dtnsim.node[15].app.destinationEid = "106,38,85,84,77,112,47,104,22,49,108"
dtnsim.node[15].app.size = "100,100,200,50,200,50,200,100,500,50,200"
# Node 16 random traffic
dtnsim.node[16].app.enable = true
dtnsim.node[16].app.bundlesNumber = "1,1,16,5,15,21,6,24,9,2"
dtnsim.node[16].app.start = "17,23,39,76,9,57,95,100,31,27"
dtnsim.node[16].app.destinationEid = "36,44,88,78,106,3,113,67,109,79"
dtnsim.node[16].app.size = "200,500,50,100,100,50,200,500,100,100"
# Node 17 random traffic
dtnsim.node[17].app.enable = true
dtnsim.node[17].app.bundlesNumber = "14,1,1,15,22,13,21,6,1,2,1,3"
dtnsim.node[17].app.start = "12,64,21,38,44,96,82,25,18,73,21,21"
dtnsim.node[17].app.destinationEid = "94,2,103,31,76,49,57,50,25,31,107,81"
dtnsim.node[17].app.size = "500,200,50,500,100,500,500,50,50,50,200,50"
# Node 18 random traffic
dtnsim.node[18].app.enable = true
dtnsim.node[18].app.bundlesNumber = "20,17,2,8,9,7,20,8,2,4,1,1,1"
dtnsim.node[18].app.start = "32,95,97,76,32,66,38,44,51,44,70,73,86"
dtnsim.node[18].app.destinationEid = "43,27,8,5,52,75,97,71,19,104,69,70,24"
dtnsim.node[18].app.size = "500,200,100,500,100,500,200,50,500,500,500,100,50"
# Node 19 random traffic
dtnsim.node[19].app.enable = true
dtnsim.node[19].app.bundlesNumber = "21,9,14,24,1,9,10,2,6,4"
dtnsim.node[19].app.start = "12,57,100,66,100,52,57,93,100,68"
dtnsim.node[19].app.destinationEid = "99,87,38,109,108,42,29,35,117,22"
dtnsim.node[19].app.size = "200,200,500,500,50,50,500,200,200,500"
# Node 20 random traffic
dtnsim.node[20].app.enable = true
dtnsim.node[20].app.bundlesNumber = "4,25,22,25,13,1,7,2,1"
dtnsim.node[20].app.start = "60,56,94,3,63,75,1,80,75"
dtnsim.node[20].app.destinationEid = "59,9,112,50,119,47,22,57,78"
dtnsim.node[20].app.size = "200,50,200,200,200,200,500,200,50"
# Node 21 random traffic
dtnsim.node[21].app.enable = true
dtnsim.node[21].app.bundlesNumber = "11,11,16,11,12,10,10,10,9"
dtnsim.node[21].app.start = "87,30,2,64,62,17,82,66,21"
dtnsim.node[21].app.destinationEid = "108,67,72,13,83,8,66,41,73"
dtnsim.node[21].app.size = "50,500,100,200,50,100,100,50,200"
# Node 22 random traffic
dtnsim.node[22].app.enable = true
dtnsim.node[22].app.bundlesNumber = "3,5,14,7,11,18,22,5,4,5,3,1,2"
dtnsim.node[22].app.start = "39,88,29,69,80,21,39,26,57,56,26,54,64"
dtnsim.node[22].app.destinationEid = "2,72,107,57,86,93,1,65,29,75,57,47,83"
dtnsim.node[22].app.size = "50,200,200,500,500,50,200,50,500,500,100,100,500"
# Node 23 random traffic
dtnsim.node[23].app.enable = true
dtnsim.node[23].app.bundlesNumber = "13,13,17,13,22,7,2,1,11,1"
dtnsim.node[23].app.start = "75,99,36,26,44,67,21,14,91,82"
dtnsim.node[23].app.destinationEid = "54,74,93,104,61,85,94,50,77,114"
dtnsim.node[23].app.size = "50,500,500,50,50,500,100,50,500,100"
# Node 24 random traffic
dtnsim.node[24].app.enable = true
dtnsim.node[24].app.bundlesNumber = "23,19,14,5,7,9,9,4,10"
dtnsim.node[24].app.start = "2,3,62,89,77,88,48,44,98"
dtnsim.node[24].app.destinationEid = "61,56,101,104,42,118,74,82,104"
dtnsim.node[24].app.size = "50,200,200,50,200,100,100,100,100"
# Node 25 random traffic
dtnsim.node[25].app.enable = true
dtnsim.node[25].app.bundlesNumber = "18,18,23,15,3,13,8,2"
dtnsim.node[25].app.start = "89,95,41,11,33,61,92,60"
dtnsim.node[25].app.destinationEid = "67,45,4,19,88,55,30,57"
dtnsim.node[25].app.size = "200,500,200,500,50,50,200,500"
# Node 26 random traffic
dtnsim.node[26].app.enable = true
dtnsim.node[26].app.bundlesNumber = "18,19,3,22,5,15,11,6,1"
dtnsim.node[26].app.start = "8,95,68,28,53,54,12,53,71"
dtnsim.node[26].app.destinationEid = "113,2,34,9,30,9,47,73,105"
dtnsim.node[26].app.size = "200,200,200,100,200,500,500,200,200"
# Node 27 random traffic
dtnsim.node[27].app.enable = true
dtnsim.node[27].app.bundlesNumber = "22,19,23,22,8,2,1,1,2"
dtnsim.node[27].app.start = "10,55,39,7,15,64,21,17,79"
dtnsim.node[27].app.destinationEid = "59,48,76,24,95,58,15,109,23"
dtnsim.node[27].app.size = "500,200,100,100,50,500,100,500,100"
# Node 28 random traffic
dtnsim.node[28].app.enable = true
dtnsim.node[28].app.bundlesNumber = "2,7,1,22,19,10,21,5,10,2,1"
dtnsim.node[28].app.start = "66,19,64,91,23,39,63,44,99,8,70"
dtnsim.node[28].app.destinationEid = "90,106,33,11,31,93,57,67,81,109,13"
dtnsim.node[28].app.size = "50,50,500,200,500,200,500,100,200,50,100"
# Node 29 random traffic
dtnsim.node[29].app.enable = true
dtnsim.node[29].app.bundlesNumber = "9,6,24,19,8,13,16,5"
dtnsim.node[29].app.start = "52,89,26,42,56,4,67,64"
dtnsim.node[29].app.destinationEid = "59,113,44,66,41,18,37,69"
dtnsim.node[29].app.size = "100,100,500,100,500,50,500,200"
# Node 30 random traffic
dtnsim.node[30].app.enable = true
dtnsim.node[30].app.bundlesNumber = "14,6,3,14,15,6,17,7,3,4,11"
dtnsim.node[30].app.start = "100,32,67,71,21,97,45,34,32,70,34"
dtnsim.node[30].app.destinationEid = "101,89,2,14,72,39,21,17,72,38,96"
dtnsim.node[30].app.size = "200,100,100,500,500,200,50,200,500,200,100"
# Node 31 random traffic
dtnsim.node[31].app.enable = true
dtnsim.node[31].app.bundlesNumber = "6,16,21,18,23,6,1,4,2,1,1,1"
dtnsim.node[31].app.start = "58,79,10,93,42,73,15,20,98,4,91,73"
dtnsim.node[31].app.destinationEid = "43,118,12,17,12,52,112,105,57,39,26,7"
dtnsim.node[31].app.size = "100,500,200,50,200,100,100,500,500,200,50,500"
# Node 32 random traffic
dtnsim.node[32].app.enable = true
dtnsim.node[32].app.bundlesNumber = "6,3,13,8,13,9,22,3,21,2"
dtnsim.node[32].app.start = "77,7,9,51,16,47,61,70,50,63"
dtnsim.node[32].app.destinationEid = "92,112,13,41,2,1,29,71,50,14"
dtnsim.node[32].app.size = "100,100,200,100,50,50,100,200,500,200"
# Node 33 random traffic
dtnsim.node[33].app.enable = true
dtnsim.node[33].app.bundlesNumber = "4,24,24,19,13,11,4,1"
dtnsim.node[33].app.start = "61,32,3,83,61,13,60,40"
dtnsim.node[33].app.destinationEid = "65,112,60,32,35,24,10,4"
dtnsim.node[33].app.size = "500,500,100,100,200,500,200,500"
# Node 34 random traffic
dtnsim.node[34].app.enable = true
dtnsim.node[34].app.bundlesNumber = "11,17,16,15,22,3,4,7,4,1"
dtnsim.node[34].app.start = "72,78,95,24,99,64,7,86,2,96"
dtnsim.node[34].app.destinationEid = "3,35,23,13,70,83,43,11,75,58"
dtnsim.node[34].app.size = "500,200,50,100,100,100,200,200,100,500"
# Node 35 random traffic
dtnsim.node[35].app.enable = true
dtnsim.node[35].app.bundlesNumber = "22,12,13,22,16,10,2,1,2"
dtnsim.node[35].app.start = "23,94,92,38,99,93,14,27,73"
dtnsim.node[35].app.destinationEid = "30,103,102,57,99,20,23,29,36"
dtnsim.node[35].app.size = "200,500,200,200,50,200,200,200,200"
# Node 36 random traffic
dtnsim.node[36].app.enable = true
dtnsim.node[36].app.bundlesNumber = "22,9,24,9,22,4,1,1,3,5"
dtnsim.node[36].app.start = "53,8,46,44,89,60,11,12,92,46"
dtnsim.node[36].app.destinationEid = "43,80,83,33,20,114,87,102,108,15"
dtnsim.node[36].app.size = "100,500,100,200,50,100,50,200,100,50"
# Node 37 random traffic
dtnsim.node[37].app.enable = true
dtnsim.node[37].app.bundlesNumber = "6,1,3,15,17,15,21,3,9,7,3"
dtnsim.node[37].app.start = "20,16,12,43,32,52,81,90,49,73,1"
dtnsim.node[37].app.destinationEid = "2,68,75,1,52,72,28,118,82,53,11"
dtnsim.node[37].app.size = "500,50,100,500,200,50,50,500,200,50,100"
# Node 38 random traffic
dtnsim.node[38].app.enable = true
dtnsim.node[38].app.bundlesNumber = "25,1,21,21,22,5,1,2,1,1"
dtnsim.node[38].app.start = "48,4,85,63,20,31,76,3,2,14"
dtnsim.node[38].app.destinationEid = "13,20,14,84,5,91,85,78,8,10"
dtnsim.node[38].app.size = "100,500,50,200,500,100,100,500,50,50"
# Node 39 random traffic
dtnsim.node[39].app.enable = true
dtnsim.node[39].app.bundlesNumber = "3,14,1,6,24,2,3,17,18,12"
dtnsim.node[39].app.start = "75,14,83,46,46,35,29,2,29,55"
dtnsim.node[39].app.destinationEid = "84,28,66,60,9,11,60,43,45,20"
dtnsim.node[39].app.size = "500,200,200,50,200,200,200,200,50,500"
# Node 40 random traffic
dtnsim.node[40].app.enable = true
dtnsim.node[40].app.bundlesNumber = "7,13,14,10,11,16,22,4,2,1"
dtnsim.node[40].app.start = "67,76,1,1,74,18,57,76,10,71"
dtnsim.node[40].app.destinationEid = "73,47,88,9,75,101,117,58,29,1"
dtnsim.node[40].app.size = "200,100,50,200,50,500,100,200,50,200"
# Node 41 random traffic
dtnsim.node[41].app.enable = true
dtnsim.node[41].app.bundlesNumber = "10,7,25,1,8,11,18,14,1,5"
dtnsim.node[41].app.start = "53,35,90,72,57,3,88,30,17,94"
dtnsim.node[41].app.destinationEid = "100,63,28,13,1,90,67,117,108,92"
dtnsim.node[41].app.size = "500,500,200,100,100,500,200,500,500,50"
# Node 42 random traffic
dtnsim.node[42].app.enable = true
dtnsim.node[42].app.bundlesNumber = "12,18,1,11,11,9,24,14"
dtnsim.node[42].app.start = "62,3,7,57,90,8,12,38"
dtnsim.node[42].app.destinationEid = "108,80,109,28,81,69,56,69"
dtnsim.node[42].app.size = "200,200,50,50,50,200,500,50"
# Node 43 random traffic
dtnsim.node[43].app.enable = true
dtnsim.node[43].app.bundlesNumber = "15,23,10,14,22,6,5,4,1"
dtnsim.node[43].app.start = "49,45,80,40,99,37,46,52,51"
dtnsim.node[43].app.destinationEid = "47,97,90,34,105,52,41,31,107"
dtnsim.node[43].app.size = "100,100,50,50,500,100,100,50,200"
# Node 44 random traffic
dtnsim.node[44].app.enable = true
dtnsim.node[44].app.bundlesNumber = "15,19,21,22,1,10,2,8,2"
dtnsim.node[44].app.start = "88,65,7,77,71,45,98,54,23"
dtnsim.node[44].app.destinationEid = "29,110,111,87,64,74,94,80,34"
dtnsim.node[44].app.size = "500,200,100,50,50,100,100,500,100"
# Node 45 random traffic
dtnsim.node[45].app.enable = true
dtnsim.node[45].app.bundlesNumber = "13,22,23,22,14,6"
dtnsim.node[45].app.start = "88,15,7,39,64,59"
dtnsim.node[45].app.destinationEid = "24,93,89,111,111,37"
dtnsim.node[45].app.size = "50,200,500,500,500,500"
# Node 46 random traffic
dtnsim.node[46].app.enable = true
dtnsim.node[46].app.bundlesNumber = "4,23,23,5,17,7,3,18"
dtnsim.node[46].app.start = "25,23,97,12,91,86,7,20"
dtnsim.node[46].app.destinationEid = "92,9,76,28,91,42,91,106"
dtnsim.node[46].app.size = "100,100,50,200,500,200,200,500"
# Node 47 random traffic
dtnsim.node[47].app.enable = true
dtnsim.node[47].app.bundlesNumber = "1,15,21,13,19,5,25,1"
dtnsim.node[47].app.start = "79,1,36,64,98,39,59,22"
dtnsim.node[47].app.destinationEid = "97,64,52,25,54,10,23,112"
dtnsim.node[47].app.size = "50,200,500,100,100,500,500,500"
# Node 48 random traffic
dtnsim.node[48].app.enable = true
dtnsim.node[48].app.bundlesNumber = "12,14,16,19,24,10,4,1"
dtnsim.node[48].app.start = "49,67,89,98,99,87,40,62"
dtnsim.node[48].app.destinationEid = "118,103,44,17,66,12,41,94"
dtnsim.node[48].app.size = "500,500,100,100,200,200,200,100"
# Node 49 random traffic
dtnsim.node[49].app.enable = true
dtnsim.node[49].app.bundlesNumber = "13,19,8,11,10,22,1,12,4"
dtnsim.node[49].app.start = "46,45,39,16,3,2,36,25,11"
dtnsim.node[49].app.destinationEid = "98,98,60,36,41,96,92,53,34"
dtnsim.node[49].app.size = "50,100,500,50,50,500,50,50,200"
# Node 50 random traffic
dtnsim.node[50].app.enable = true
dtnsim.node[50].app.bundlesNumber = "6,12,4,4,11,25,13,11,10,4"
dtnsim.node[50].app.start = "8,7,33,57,51,45,96,46,35,32"
dtnsim.node[50].app.destinationEid = "83,80,68,75,103,33,20,45,34,78"
dtnsim.node[50].app.size = "50,100,200,500,500,200,50,200,200,50"
# Node 51 random traffic
dtnsim.node[51].app.enable = true
dtnsim.node[51].app.bundlesNumber = "9,16,12,19,16,22,2,2,2"
dtnsim.node[51].app.start = "99,79,6,65,34,48,73,56,74"
dtnsim.node[51].app.destinationEid = "59,98,96,68,31,47,115,5,6"
dtnsim.node[51].app.size = "500,200,500,100,200,500,500,200,100"
# Node 52 random traffic
dtnsim.node[52].app.enable = true
dtnsim.node[52].app.bundlesNumber = "23,4,22,17,18,12,1,1,1,1"
dtnsim.node[52].app.start = "95,2,33,46,23,85,18,80,90,83"
dtnsim.node[52].app.destinationEid = "39,74,24,59,7,94,49,70,6,93"
dtnsim.node[52].app.size = "500,200,500,50,100,500,200,500,200,100"
# Node 53 random traffic
dtnsim.node[53].app.enable = true
dtnsim.node[53].app.bundlesNumber = "19,15,21,25,1,6,1,7,2,2,1"
dtnsim.node[53].app.start = "34,96,65,27,1,79,17,42,85,4,96"
dtnsim.node[53].app.destinationEid = "46,110,1,113,97,88,93,98,19,25,91"
dtnsim.node[53].app.size = "200,50,100,50,100,500,500,50,100,100,500"
# Node 54 random traffic
dtnsim.node[54].app.enable = true
dtnsim.node[54].app.bundlesNumber = "1,24,3,9,10,5,16,17,15"
dtnsim.node[54].app.start = "15,17,45,84,49,51,69,14,29"
dtnsim.node[54].app.destinationEid = "32,104,15,112,23,45,27,34,53"
dtnsim.node[54].app.size = "50,50,50,500,50,50,100,200,100"
# Node 55 random traffic
dtnsim.node[55].app.enable = true
dtnsim.node[55].app.bundlesNumber = "15,10,9,13,8,21,14,1,7,2"
dtnsim.node[55].app.start = "16,75,92,33,43,7,35,39,52,68"
dtnsim.node[55].app.destinationEid = "50,49,62,15,73,61,105,120,85,102"
dtnsim.node[55].app.size = "200,100,500,500,500,100,200,100,200,100"
# Node 56 random traffic
dtnsim.node[56].app.enable = true
dtnsim.node[56].app.bundlesNumber = "14,3,2,22,6,22,13,3,2,7,4,1,1"
dtnsim.node[56].app.start = "16,91,52,62,59,20,18,29,51,93,4,83,52"
dtnsim.node[56].app.destinationEid = "41,3,88,102,26,70,61,107,7,99,73,19,75"
dtnsim.node[56].app.size = "200,200,100,50,200,500,500,200,500,50,500,500,200"
# Node 57 random traffic
dtnsim.node[57].app.enable = true
dtnsim.node[57].app.bundlesNumber = "22,7,18,10,21,20,2"
dtnsim.node[57].app.start = "15,39,68,58,87,20,78"
dtnsim.node[57].app.destinationEid = "117,44,46,67,33,51,41"
dtnsim.node[57].app.size = "100,500,100,200,200,200,200"
# Node 58 random traffic
dtnsim.node[58].app.enable = true
dtnsim.node[58].app.bundlesNumber = "4,23,11,17,18,16,10,1"
dtnsim.node[58].app.start = "98,30,79,82,26,74,39,29"
dtnsim.node[58].app.destinationEid = "68,100,33,8,109,53,3,71"
dtnsim.node[58].app.size = "200,500,100,200,50,100,100,500"
# Node 59 random traffic
dtnsim.node[59].app.enable = true
dtnsim.node[59].app.bundlesNumber = "3,14,8,6,7,19,13,12,4,11,1,2"
dtnsim.node[59].app.start = "17,14,25,42,68,10,87,71,22,96,16,54"
dtnsim.node[59].app.destinationEid = "64,49,17,112,18,1,112,106,100,5,94,77"
dtnsim.node[59].app.size = "50,500,200,50,50,200,100,500,200,500,50,500"
# Node 60 random traffic
dtnsim.node[60].app.enable = true
dtnsim.node[60].app.bundlesNumber = "5,9,13,4,12,24,2,7,20,2,2"
dtnsim.node[60].app.start = "16,84,30,38,65,74,49,70,65,84,24"
dtnsim.node[60].app.destinationEid = "35,17,65,106,20,79,27,70,94,91,20"
dtnsim.node[60].app.size = "100,500,500,500,200,100,50,500,200,500,100"
# Node 61 random traffic
dtnsim.node[61].app.enable = true
dtnsim.node[61].app.bundlesNumber = "4,19,7,11,2,3,1,5,23,23,2"
dtnsim.node[61].app.start = "47,18,84,59,82,58,85,14,60,5,69"
dtnsim.node[61].app.destinationEid = "93,70,20,50,63,19,103,19,7,50,39"
dtnsim.node[61].app.size = "100,500,100,500,50,200,100,200,500,500,500"
# Node 62 random traffic
dtnsim.node[62].app.enable = true
dtnsim.node[62].app.bundlesNumber = "22,3,13,12,14,20,16"
dtnsim.node[62].app.start = "64,58,96,31,60,53,63"
dtnsim.node[62].app.destinationEid = "1,85,44,55,34,2,82"
dtnsim.node[62].app.size = "100,200,100,50,100,100,50"
# Node 63 random traffic
dtnsim.node[63].app.enable = true
dtnsim.node[63].app.bundlesNumber = "12,21,12,7,17,12,12,6,1"
dtnsim.node[63].app.start = "73,3,100,52,70,66,34,8,25"
dtnsim.node[63].app.destinationEid = "45,99,117,65,8,25,65,103,82"
dtnsim.node[63].app.size = "100,100,200,500,100,500,50,100,50"
# Node 64 random traffic
dtnsim.node[64].app.enable = true
dtnsim.node[64].app.bundlesNumber = "24,12,24,7,24,8,1"
dtnsim.node[64].app.start = "96,29,53,88,24,17,16"
dtnsim.node[64].app.destinationEid = "8,97,41,111,113,102,11"
dtnsim.node[64].app.size = "50,200,50,500,100,50,200"
# Node 65 random traffic
dtnsim.node[65].app.enable = true
dtnsim.node[65].app.bundlesNumber = "19,18,7,7,11,17,21"
dtnsim.node[65].app.start = "56,5,86,27,5,73,11"
dtnsim.node[65].app.destinationEid = "18,27,11,60,111,62,67"
dtnsim.node[65].app.size = "100,100,500,500,50,100,500"
# Node 66 random traffic
dtnsim.node[66].app.enable = true
dtnsim.node[66].app.bundlesNumber = "22,23,9,17,3,24,2"
dtnsim.node[66].app.start = "1,94,78,43,8,39,4"
dtnsim.node[66].app.destinationEid = "52,82,67,57,31,77,47"
dtnsim.node[66].app.size = "50,500,200,200,200,200,500"
# Node 67 random traffic
dtnsim.node[67].app.enable = true
dtnsim.node[67].app.bundlesNumber = "4,24,15,3,5,16,14,11,3,4,1"
dtnsim.node[67].app.start = "46,39,85,46,16,18,44,52,30,15,17"
dtnsim.node[67].app.destinationEid = "98,101,86,56,118,107,87,38,2,81,86"
dtnsim.node[67].app.size = "50,100,100,100,50,50,200,500,200,100,200"
# Node 68 random traffic
dtnsim.node[68].app.enable = true
dtnsim.node[68].app.bundlesNumber = "12,23,7,15,10,11,14,5,3"
dtnsim.node[68].app.start = "20,79,57,22,90,43,91,55,38"
dtnsim.node[68].app.destinationEid = "65,53,7,61,49,118,112,36,13"
dtnsim.node[68].app.size = "200,200,100,200,200,100,500,50,200"
# Node 69 random traffic
dtnsim.node[69].app.enable = true
dtnsim.node[69].app.bundlesNumber = "11,21,3,17,23,2,7,14,2"
dtnsim.node[69].app.start = "55,71,13,58,40,52,38,85,32"
dtnsim.node[69].app.destinationEid = "4,58,23,94,24,32,102,24,59"
dtnsim.node[69].app.size = "100,500,100,500,500,100,100,500,200"
# Node 70 random traffic
dtnsim.node[70].app.enable = true
dtnsim.node[70].app.bundlesNumber = "25,4,2,10,7,3,4,4,11,12,9,8,1"
dtnsim.node[70].app.start = "40,6,44,19,10,66,88,27,84,31,46,31,29"
dtnsim.node[70].app.destinationEid = "46,106,114,17,11,35,117,19,23,67,1,116,2"
dtnsim.node[70].app.size = "100,100,200,100,50,50,500,100,50,500,500,500,100"
# Node 71 random traffic
dtnsim.node[71].app.enable = true
dtnsim.node[71].app.bundlesNumber = "17,1,3,15,14,21,18,3,1,2,5"
dtnsim.node[71].app.start = "67,23,100,93,8,55,2,85,24,88,57"
dtnsim.node[71].app.destinationEid = "59,1,110,1,100,64,115,117,14,31,63"
dtnsim.node[71].app.size = "100,500,50,200,50,100,100,500,500,500,100"
# Node 72 random traffic
dtnsim.node[72].app.enable = true
dtnsim.node[72].app.bundlesNumber = "5,3,4,20,10,18,19,1,9,6,3,1,1"
dtnsim.node[72].app.start = "29,73,68,24,33,12,89,14,78,27,48,17,77"
dtnsim.node[72].app.destinationEid = "42,30,105,58,86,42,51,20,37,100,62,59,75"
dtnsim.node[72].app.size = "50,500,500,200,50,500,500,100,500,100,500,50,50"
# Node 73 random traffic
dtnsim.node[73].app.enable = true
dtnsim.node[73].app.bundlesNumber = "5,3,3,2,7,13,5,12,22,11,17"
dtnsim.node[73].app.start = "24,3,99,10,90,39,57,21,14,18,48"
dtnsim.node[73].app.destinationEid = "80,85,88,4,70,83,100,32,92,97,107"
dtnsim.node[73].app.size = "100,500,50,100,200,50,50,500,100,50,200"
# Node 74 random traffic
dtnsim.node[74].app.enable = true
dtnsim.node[74].app.bundlesNumber = "23,9,16,25,7,2,6,8,1,2,1"
dtnsim.node[74].app.start = "68,38,75,17,88,68,17,33,48,82,93"
dtnsim.node[74].app.destinationEid = "103,28,78,4,70,40,6,6,70,23,77"
dtnsim.node[74].app.size = "50,500,500,500,100,500,100,500,50,50,50"
# Node 75 random traffic
dtnsim.node[75].app.enable = true
dtnsim.node[75].app.bundlesNumber = "1,22,19,15,7,1,23,7,3,1,1"
dtnsim.node[75].app.start = "6,34,15,65,32,68,24,96,41,53,13"
dtnsim.node[75].app.destinationEid = "82,111,102,100,74,48,54,65,5,29,119"
dtnsim.node[75].app.size = "500,50,100,200,200,100,100,500,500,200,50"
# Node 76 random traffic
dtnsim.node[76].app.enable = true
dtnsim.node[76].app.bundlesNumber = "1,9,2,1,19,12,25,14,1,1,10,1,3,1"
dtnsim.node[76].app.start = "11,21,82,17,23,13,37,9,87,72,55,57,92,60"
dtnsim.node[76].app.destinationEid = "91,58,34,82,27,16,101,56,32,120,56,88,84,61"
dtnsim.node[76].app.size = "500,50,100,500,500,50,100,500,100,100,100,50,500,50"
# Node 77 random traffic
dtnsim.node[77].app.enable = true
dtnsim.node[77].app.bundlesNumber = "20,25,15,22,16,1,1"
dtnsim.node[77].app.start = "19,67,18,23,23,5,50"
dtnsim.node[77].app.destinationEid = "87,83,118,103,22,29,38"
dtnsim.node[77].app.size = "200,50,500,200,500,50,100"
# Node 78 random traffic
dtnsim.node[78].app.enable = true
dtnsim.node[78].app.bundlesNumber = "1,9,15,24,6,13,24,6,2"
dtnsim.node[78].app.start = "72,13,83,57,65,54,85,65,69"
dtnsim.node[78].app.destinationEid = "105,107,57,113,82,103,101,44,103"
dtnsim.node[78].app.size = "200,100,500,200,200,100,100,500,500"
# Node 79 random traffic
dtnsim.node[79].app.enable = true
dtnsim.node[79].app.bundlesNumber = "16,22,8,25,17,5,4,2,1"
dtnsim.node[79].app.start = "22,7,36,30,53,32,68,81,53"
dtnsim.node[79].app.destinationEid = "89,27,45,60,24,80,3,56,113"
dtnsim.node[79].app.size = "500,200,200,100,50,100,100,500,200"
# Node 80 random traffic
dtnsim.node[80].app.enable = true
dtnsim.node[80].app.bundlesNumber = "4,14,24,18,1,12,1,14,8,2,2"
dtnsim.node[80].app.start = "96,28,27,75,97,35,28,66,27,85,1"
dtnsim.node[80].app.destinationEid = "75,111,81,111,22,32,106,22,67,28,16"
dtnsim.node[80].app.size = "500,100,500,100,100,200,100,200,50,500,200"
# Node 81 random traffic
dtnsim.node[81].app.enable = true
dtnsim.node[81].app.bundlesNumber = "23,8,14,2,12,11,24,6"
dtnsim.node[81].app.start = "42,95,1,91,50,14,51,32"
dtnsim.node[81].app.destinationEid = "89,94,82,73,71,60,94,94"
dtnsim.node[81].app.size = "500,50,200,100,200,100,50,200"
# Node 82 random traffic
dtnsim.node[82].app.enable = true
dtnsim.node[82].app.bundlesNumber = "20,14,8,17,7,10,3,12,2,3,4"
dtnsim.node[82].app.start = "31,20,76,82,72,22,67,98,95,82,61"
dtnsim.node[82].app.destinationEid = "7,16,41,114,33,111,36,71,44,110,18"
dtnsim.node[82].app.size = "50,500,100,100,500,100,100,500,500,50,50"
# Node 83 random traffic
dtnsim.node[83].app.enable = true
dtnsim.node[83].app.bundlesNumber = "23,12,10,23,19,10,3"
dtnsim.node[83].app.start = "18,47,99,84,55,37,6"
dtnsim.node[83].app.destinationEid = "47,105,111,2,74,101,3"
dtnsim.node[83].app.size = "200,200,200,200,100,100,500"
# Node 84 random traffic
dtnsim.node[84].app.enable = true
dtnsim.node[84].app.bundlesNumber = "3,13,5,2,20,11,13,4,24,1,3,1"
dtnsim.node[84].app.start = "13,91,72,61,2,98,42,68,56,18,85,16"
dtnsim.node[84].app.destinationEid = "8,37,94,112,15,70,41,26,55,85,70,96"
dtnsim.node[84].app.size = "200,500,200,50,100,50,200,500,50,500,500,500"
# Node 85 random traffic
dtnsim.node[85].app.enable = true
dtnsim.node[85].app.bundlesNumber = "5,10,7,3,12,14,21,16,6,3,3"
dtnsim.node[85].app.start = "94,86,86,27,60,84,62,100,8,71,82"
dtnsim.node[85].app.destinationEid = "52,91,18,80,49,8,103,29,33,91,41"
dtnsim.node[85].app.size = "200,500,200,100,500,500,200,100,50,100,200"
# Node 86 random traffic
dtnsim.node[86].app.enable = true
dtnsim.node[86].app.bundlesNumber = "2,23,23,21,17,1,12,1"
dtnsim.node[86].app.start = "32,84,83,81,73,14,8,40"
dtnsim.node[86].app.destinationEid = "16,107,99,112,111,111,108,38"
dtnsim.node[86].app.size = "50,100,200,500,100,200,50,500"
# Node 87 random traffic
dtnsim.node[87].app.enable = true
dtnsim.node[87].app.bundlesNumber = "6,13,20,18,18,18,3,4"
dtnsim.node[87].app.start = "88,98,32,49,34,17,59,25"
dtnsim.node[87].app.destinationEid = "45,20,111,54,26,48,72,7"
dtnsim.node[87].app.size = "100,100,100,50,200,50,200,50"
# Node 88 random traffic
dtnsim.node[88].app.enable = true
dtnsim.node[88].app.bundlesNumber = "3,7,5,20,20,3,5,10,11,15,1"
dtnsim.node[88].app.start = "19,31,32,27,38,79,21,100,5,50,36"
dtnsim.node[88].app.destinationEid = "119,10,89,34,118,47,47,86,83,13,91"
dtnsim.node[88].app.size = "500,500,50,500,500,50,50,50,200,500,200"
# Node 89 random traffic
dtnsim.node[89].app.enable = true
dtnsim.node[89].app.bundlesNumber = "24,23,13,3,14,2,20,1"
dtnsim.node[89].app.start = "17,59,65,100,57,79,95,20"
dtnsim.node[89].app.destinationEid = "74,65,99,69,16,40,108,14"
dtnsim.node[89].app.size = "500,500,500,100,100,50,100,50"
# Node 90 random traffic
dtnsim.node[90].app.enable = true
dtnsim.node[90].app.bundlesNumber = "22,12,2,19,9,10,9,1,4,4,5,3"
dtnsim.node[90].app.start = "19,60,7,18,18,87,55,67,48,12,70,5"
dtnsim.node[90].app.destinationEid = "54,80,89,15,62,15,35,85,7,58,83,12"
dtnsim.node[90].app.size = "50,200,100,500,100,100,200,50,50,50,50,200"
# Node 91 random traffic
dtnsim.node[91].app.enable = true
dtnsim.node[91].app.bundlesNumber = "25,19,3,5,5,1,17,13,2,1,5,2,2"
dtnsim.node[91].app.start = "87,12,11,61,82,23,31,51,95,69,88,20,8"
dtnsim.node[91].app.destinationEid = "16,62,86,59,25,33,100,21,18,15,102,76,58"
dtnsim.node[91].app.size = "200,200,50,100,100,100,50,200,50,50,100,50,100"
# Node 92 random traffic
dtnsim.node[92].app.enable = true
dtnsim.node[92].app.bundlesNumber = "6,10,11,18,25,1,14,10,3,1,1"
dtnsim.node[92].app.start = "23,71,40,72,48,78,15,92,50,53,91"
dtnsim.node[92].app.destinationEid = "103,44,74,93,5,17,17,77,75,93,36"
dtnsim.node[92].app.size = "200,200,500,500,100,200,100,200,50,500,100"
# Node 93 random traffic
dtnsim.node[93].app.enable = true
dtnsim.node[93].app.bundlesNumber = "16,20,9,12,15,19,8,1"
dtnsim.node[93].app.start = "50,2,69,29,68,65,61,56"
dtnsim.node[93].app.destinationEid = "27,55,13,23,61,117,73,107"