[General]
network = src.dtnsim										
repeat = 1
allow-object-stealing-on-deletion = true

# Simulation end time
sim-time-limit = 84600s

# Nodes quantity (identifiers (EiDs) matches their index, EiD=0 is ignored)			
dtnsim.nodesNumber = 120
dtnsim.node[*].icon = "satellite"

# Nodes's failure rates
dtnsim.node[*].fault.enable = false
dtnsim.node[*].fault.meanTTF = 0s
dtnsim.node[*].fault.meanTTR = 0s

# Mobility
dtnsim.node[*].hasMobility = true
dtnsim.node[*].noradModule.satIndex = parentIndex()
dtnsim.node[*].noradModule.satName = "sat"
**.updateInterval = 20s
**.numOfSats = 120
**.satPerPlane = 10
**.altitude = 540
**.planes = 12
**.phaseOffset = 7

dtnsim.node[*].dtn.routing = "antop"
dtnsim.node[*].dtn.printRoutingDebug = true

# --- Random Traffic Configuration ---
# Node 1 random traffic
dtnsim.node[1].app.enable = true
dtnsim.node[1].app.bundlesNumber = "1,1,1,1,1,1,1,1,1,1,1,1,1,1,1,1,1,1,1,1,1,1,1,1,1,1,1,1,1,1,1,1,1,1,1,1,1,1,1,1,1,1,1,1,1,1,1,1,1,1,1,1,1,1,1,1,1,1,1,1,1,1,1,1,1,1,1,1,1,1,1,1,1,1,1,1,1,1,1,1,1,1,1,1,1,1,1,1,1,1,1,1,1,1,1,1,1,1,1,1"
dtnsim.node[1].app.start = "1,5,11,1,7,11,7,19,17,6,8,16,5,15,8,12,7,11,4,13,19,14,3,12,7,10,9,16,5,1,13,12,18,13,18,15,14,19,2,11,12,15,14,3,5,2,8,5,1,8,14,11,6,7,3,9,14,11,5,5,15,6,11,2,8,17,17,16,10,17,14,5,14,17,2,18,10,6,5,6,15,8,18,5,19,2,8,14,13,13,10,17,20,10,14,17,8,16,17,3"
dtnsim.node[1].app.destinationEid = "54,112,64,26,29,78,94,73,89,6,55,2,43,50,29,67,78,42,7,15,31,43,25,4,65,119,104,92,111,79,60,28,106,73,96,119,44,20,31,46,51,103,2,110,79,55,99,49,105,24,10,27,55,92,69,39,93,30,74,24,92,72,10,81,53,64,26,27,82,110,78,31,88,47,119,113,49,109,9,118,77,33,42,114,54,37,14,3,94,50,13,43,111,36,44,44,23,105,97,18"
dtnsim.node[1].app.size = "500,500,500,200,50,100,200,200,500,200,200,100,500,100,100,50,100,500,100,200,100,200,100,100,500,50,50,500,200,200,100,50,500,500,50,100,200,50,200,500,200,500,500,500,500,50,200,200,50,100,100,500,200,200,500,500,50,500,200,200,100,50,200,500,50,200,200,200,200,100,100,500,50,100,200,500,50,500,100,200,500,50,100,50,500,50,100,100,200,200,200,200,50,200,50,100,50,100,100,200"
        # Node 2 random traffic
dtnsim.node[2].app.enable = true
dtnsim.node[2].app.bundlesNumber = "1,1,1,1,1,1,1,1,1,1,1,1,1,1,1,1,1,1,1,1,1,1,1,1,1,1,1,1,1,1,1,1,1,1,1,1,1,1,1,1,1,1,1,1,1,1,1,1,1,1,1,1,1,1,1,1,1,1,1,1,1,1,1,1,1,1,1,1,1,1,1,1,1,1,1,1,1,1,1,1,1,1,1,1,1,1,1,1,1,1,1,1,1,1,1,1,1,1,1,1"
dtnsim.node[2].app.start = "20,6,19,1,10,10,13,13,10,7,3,10,2,13,1,9,20,20,7,5,15,20,2,2,13,7,2,11,9,12,14,9,6,5,10,11,1,7,4,7,11,6,20,5,20,2,14,10,8,4,19,14,3,8,12,15,17,14,7,7,12,11,18,17,6,5,11,8,17,20,3,6,17,5,16,16,4,19,9,8,8,18,18,6,15,5,13,8,12,3,12,7,13,12,8,11,5,4,15,8"
dtnsim.node[2].app.destinationEid = "92,76,26,60,27,37,51,50,16,31,82,67,70,103,93,11,90,68,108,91,78,42,70,96,73,82,100,98,1,41,51,113,43,82,71,12,83,95,84,3,119,70,116,106,19,23,28,76,54,99,88,111,77,18,46,49,75,48,45,24,39,71,90,51,43,40,23,114,42,87,112,57,48,114,50,83,17,93,45,30,21,15,71,115,29,106,28,27,96,34,27,64,13,84,29,4,43,114,99,115"
dtnsim.node[2].app.size = "50,100,100,200,200,100,200,100,500,500,100,200,500,500,50,100,200,100,500,50,100,100,50,500,500,50,100,100,50,500,200,50,50,50,50,50,500,50,100,50,100,500,200,500,500,500,200,200,500,100,100,500,200,200,100,200,50,100,50,100,50,500,50,50,50,100,100,100,500,500,200,100,200,50,50,100,500,500,100,100,100,500,500,100,100,500,100,100,100,500,500,100,200,100,500,50,50,500,500,100"
        # Node 3 random traffic
dtnsim.node[3].app.enable = true
dtnsim.node[3].app.bundlesNumber = "1,1,1,1,1,1,1,1,1,1,1,1,1,1,1,1,1,1,1,1,1,1,1,1,1,1,1,1,1,1,1,1,1,1,1,1,1,1,1,1,1,1,1,1,1,1,1,1,1,1,1,1,1,1,1,1,1,1,1,1,1,1,1,1,1,1,1,1,1,1,1,1,1,1,1,1,1,1,1,1,1,1,1,1,1,1,1,1,1,1,1,1,1,1,1,1,1,1,1,1"
dtnsim.node[3].app.start = "6,10,16,14,15,16,10,6,3,17,3,18,13,10,2,20,1,6,16,11,8,6,8,17,19,9,12,9,1,13,18,16,4,5,1,8,16,12,3,15,17,3,14,16,7,2,12,16,5,8,2,2,13,10,13,4,10,12,2,1,17,13,5,1,12,19,9,7,13,8,18,11,7,4,15,17,5,9,14,5,14,2,7,19,8,15,9,6,19,12,9,12,1,4,17,11,5,20,8,3"
dtnsim.node[3].app.destinationEid = "96,76,59,36,115,19,77,26,2,111,114,114,77,100,105,1,64,29,81,97,51,37,105,58,7,92,34,95,119,53,110,35,86,66,27,6,41,83,95,53,11,1,60,85,11,119,40,85,43,90,41,8,55,23,108,79,92,63,10,41,22,110,114,14,35,49,82,7,21,60,44,49,75,120,7,93,84,32,94,105,40,98,106,34,16,106,60,35,50,9,49,23,119,4,77,67,112,19,101,23"
dtnsim.node[3].app.size = "50,50,200,50,500,100,500,500,100,50,200,500,50,100,50,500,500,50,200,200,200,200,500,100,100,500,200,200,50,200,100,200,50,100,500,200,200,50,500,500,500,500,50,200,50,200,200,50,500,100,100,50,500,200,50,50,200,200,50,500,500,50,50,200,200,200,200,100,50,50,100,100,200,50,200,200,200,200,100,100,100,500,500,500,100,500,100,50,200,200,500,500,500,200,200,100,500,200,500,500"
        # Node 4 random traffic
dtnsim.node[4].app.enable = true
dtnsim.node[4].app.bundlesNumber = "1,1,1,1,1,1,1,1,1,1,1,1,1,1,1,1,1,1,1,1,1,1,1,1,1,1,1,1,1,1,1,1,1,1,1,1,1,1,1,1,1,1,1,1,1,1,1,1,1,1,1,1,1,1,1,1,1,1,1,1,1,1,1,1,1,1,1,1,1,1,1,1,1,1,1,1,1,1,1,1,1,1,1,1,1,1,1,1,1,1,1,1,1,1,1,1,1,1,1,1"
dtnsim.node[4].app.start = "9,19,7,8,10,1,13,18,15,4,11,16,16,13,11,6,17,14,19,15,7,13,1,1,10,17,15,17,16,19,11,17,10,4,11,18,17,17,18,4,5,5,6,17,5,20,3,1,14,17,8,6,20,5,15,9,4,4,12,2,14,7,14,7,15,12,9,20,3,18,17,17,8,9,4,16,13,20,11,14,11,6,18,10,20,7,15,10,18,8,17,13,4,18,6,16,9,8,14,12"
dtnsim.node[4].app.destinationEid = "114,35,113,62,94,108,24,66,74,72,68,61,95,58,77,52,28,106,66,69,58,63,118,103,64,73,109,42,38,94,25,51,27,5,34,61,98,48,110,119,81,19,67,94,86,95,104,10,113,64,89,70,119,49,6,60,63,94,69,77,47,27,26,55,120,28,80,36,73,38,88,33,39,3,3,116,62,68,31,83,14,44,9,113,9,8,43,92,23,118,86,74,27,43,53,61,73,3,93,104"
dtnsim.node[4].app.size = "100,100,50,50,200,500,500,500,500,200,100,200,50,100,100,500,50,50,200,100,100,50,500,200,100,50,100,500,50,500,200,100,50,500,50,200,50,500,100,200,50,200,500,50,100,50,500,200,500,50,100,200,100,100,100,500,100,200,100,500,500,100,500,500,100,500,500,50,100,50,100,200,100,500,200,50,100,100,50,50,200,500,500,50,500,200,500,100,100,100,500,200,100,50,50,50,200,500,100,100"
        # Node 5 random traffic
dtnsim.node[5].app.enable = true
dtnsim.node[5].app.bundlesNumber = "1,1,1,1,1,1,1,1,1,1,1,1,1,1,1,1,1,1,1,1,1,1,1,1,1,1,1,1,1,1,1,1,1,1,1,1,1,1,1,1,1,1,1,1,1,1,1,1,1,1,1,1,1,1,1,1,1,1,1,1,1,1,1,1,1,1,1,1,1,1,1,1,1,1,1,1,1,1,1,1,1,1,1,1,1,1,1,1,1,1,1,1,1,1,1,1,1,1,1,1"
dtnsim.node[5].app.start = "4,18,1,14,4,12,20,3,5,14,20,5,12,14,5,17,12,1,17,4,14,1,4,20,3,6,18,10,14,7,2,18,12,18,1,19,6,16,7,15,7,7,7,9,16,14,11,11,12,6,2,12,19,5,3,7,5,14,12,7,7,12,17,18,18,14,13,16,1,19,7,2,16,16,11,1,10,6,9,9,11,19,17,15,4,9,13,2,13,18,6,17,20,13,4,20,20,8,11,4"
dtnsim.node[5].app.destinationEid = "41,113,34,107,41,94,106,72,52,117,25,57,37,71,28,108,19,86,73,86,83,10,55,27,24,39,59,36,26,39,77,43,25,112,13,72,107,47,113,96,85,22,49,117,82,10,41,78,93,55,96,118,8,22,3,66,81,68,48,102,99,70,79,61,24,107,23,3,15,59,43,34,55,27,63,99,95,88,116,52,4,29,12,93,87,86,77,86,23,38,36,29,11,78,115,43,69,111,72,105"
dtnsim.node[5].app.size = "50,200,200,100,50,200,500,100,100,50,50,500,50,200,50,200,50,200,100,100,100,100,500,50,50,500,50,200,100,200,100,100,200,500,500,100,200,50,200,50,50,200,50,100,500,100,500,200,200,500,200,50,100,100,100,50,200,500,100,50,100,100,500,50,200,100,100,100,50,500,500,100,200,100,500,50,500,50,100,500,50,200,50,500,200,100,200,50,50,500,100,100,500,200,50,200,200,200,500,50"
        # Node 6 random traffic
dtnsim.node[6].app.enable = true
dtnsim.node[6].app.bundlesNumber = "1,1,1,1,1,1,1,1,1,1,1,1,1,1,1,1,1,1,1,1,1,1,1,1,1,1,1,1,1,1,1,1,1,1,1,1,1,1,1,1,1,1,1,1,1,1,1,1,1,1,1,1,1,1,1,1,1,1,1,1,1,1,1,1,1,1,1,1,1,1,1,1,1,1,1,1,1,1,1,1,1,1,1,1,1,1,1,1,1,1,1,1,1,1,1,1,1,1,1,1"
dtnsim.node[6].app.start = "20,9,14,5,2,4,16,7,4,10,19,9,11,8,2,1,7,7,12,13,12,17,4,19,18,5,6,14,11,4,18,15,3,16,16,6,11,11,7,16,18,20,1,17,8,9,11,17,10,4,9,20,16,17,12,4,9,1,6,1,6,20,17,13,16,13,7,17,7,6,11,12,6,1,5,12,5,15,10,17,13,13,16,15,5,3,4,15,11,13,6,10,13,15,10,4,19,3,1,20"
dtnsim.node[6].app.destinationEid = "98,11,46,105,78,101,71,20,83,108,76,62,115,69,4,78,57,76,30,25,53,33,120,44,112,103,45,116,81,3,79,82,57,95,2,56,48,52,19,105,108,20,115,23,18,23,98,10,73,35,94,65,105,108,104,33,23,9,117,102,118,58,18,87,13,4,18,71,119,38,91,112,27,33,15,53,99,43,71,64,47,49,93,51,112,26,9,81,99,15,28,118,34,81,108,3,89,38,36,48"
dtnsim.node[6].app.size = "50,500,50,200,500,100,200,500,500,200,100,200,50,50,200,100,200,500,200,50,500,100,100,100,50,50,200,200,500,200,500,100,50,50,50,500,200,500,200,500,50,200,50,100,500,100,500,500,500,500,500,50,500,500,500,200,50,100,100,50,200,50,100,100,500,100,500,500,200,200,200,50,100,500,100,50,200,200,500,100,100,500,50,500,200,500,500,200,200,200,500,50,200,100,50,100,500,100,50,50"
        # Node 7 random traffic
dtnsim.node[7].app.enable = true
dtnsim.node[7].app.bundlesNumber = "1,1,1,1,1,1,1,1,1,1,1,1,1,1,1,1,1,1,1,1,1,1,1,1,1,1,1,1,1,1,1,1,1,1,1,1,1,1,1,1,1,1,1,1,1,1,1,1,1,1,1,1,1,1,1,1,1,1,1,1,1,1,1,1,1,1,1,1,1,1,1,1,1,1,1,1,1,1,1,1,1,1,1,1,1,1,1,1,1,1,1,1,1,1,1,1,1,1,1,1"
dtnsim.node[7].app.start = "2,1,10,6,14,3,6,17,16,14,18,14,10,12,13,18,8,8,17,13,3,6,10,18,3,11,6,1,6,19,12,15,20,16,7,1,11,16,20,2,7,5,12,1,3,12,19,13,7,6,14,15,5,16,15,14,18,16,4,13,14,3,14,2,9,3,20,8,7,10,13,19,15,18,11,18,1,20,16,8,14,15,2,7,16,6,12,2,14,9,16,14,19,10,1,1,7,5,19,19"
dtnsim.node[7].app.destinationEid = "4,67,70,83,4,95,43,67,8,107,3,85,112,46,16,102,58,1,33,78,107,55,9,11,39,91,81,111,99,14,109,78,36,11,79,69,3,78,73,119,75,55,91,102,109,66,5,19,69,101,42,12,59,6,24,2,40,99,40,79,12,22,101,120,52,28,72,72,95,23,85,14,51,68,105,49,20,61,46,95,41,104,49,28,32,113,99,31,37,6,79,119,28,86,115,117,96,62,72,76"
dtnsim.node[7].app.size = "500,50,50,500,500,500,50,100,50,200,100,500,100,200,50,500,50,100,100,50,200,500,500,50,50,500,100,500,200,50,100,50,200,100,500,100,500,50,100,50,50,50,500,50,200,500,50,500,100,500,500,200,50,100,100,200,200,100,500,100,100,50,200,200,200,100,50,200,200,200,50,500,200,200,500,50,500,500,100,100,100,50,50,200,50,50,100,500,500,50,500,50,100,500,500,500,200,500,100,500"
        # Node 8 random traffic
dtnsim.node[8].app.enable = true
dtnsim.node[8].app.bundlesNumber = "1,1,1,1,1,1,1,1,1,1,1,1,1,1,1,1,1,1,1,1,1,1,1,1,1,1,1,1,1,1,1,1,1,1,1,1,1,1,1,1,1,1,1,1,1,1,1,1,1,1,1,1,1,1,1,1,1,1,1,1,1,1,1,1,1,1,1,1,1,1,1,1,1,1,1,1,1,1,1,1,1,1,1,1,1,1,1,1,1,1,1,1,1,1,1,1,1,1,1,1"
dtnsim.node[8].app.start = "9,7,2,11,1,16,3,18,18,16,13,12,19,2,14,2,9,7,3,16,4,19,4,11,6,15,19,19,2,6,7,8,8,13,14,15,10,6,12,11,11,13,7,9,11,5,10,16,9,3,20,4,12,16,2,7,7,18,12,14,16,4,13,9,4,16,15,6,17,3,14,14,4,17,4,12,18,3,12,14,5,5,12,8,10,18,10,3,2,1,17,17,5,3,7,5,19,1,3,5"
dtnsim.node[8].app.destinationEid = "69,33,70,33,70,82,6,57,75,91,112,111,73,55,97,67,116,23,10,28,83,76,34,28,59,4,75,117,36,112,41,84,24,72,89,82,107,46,73,77,2,91,74,79,106,50,83,55,43,100,114,24,105,61,118,4,92,33,114,10,118,62,58,29,78,25,94,19,17,115,50,117,25,87,80,115,17,2,36,28,47,38,76,57,92,26,81,101,23,67,77,99,2,115,100,39,84,30,116,86"
dtnsim.node[8].app.size = "500,100,200,100,100,100,500,50,200,200,50,50,500,100,500,100,500,500,100,500,50,200,500,500,500,50,500,500,200,200,200,500,100,200,200,200,500,500,100,50,50,100,500,50,500,500,50,100,50,500,50,500,100,100,200,500,100,100,200,50,500,500,500,500,500,500,100,500,500,500,100,500,50,200,200,200,500,200,100,500,50,500,200,50,100,500,50,50,50,50,50,500,50,500,100,200,50,50,200,500"
        # Node 9 random traffic
dtnsim.node[9].app.enable = true
dtnsim.node[9].app.bundlesNumber = "1,1,1,1,1,1,1,1,1,1,1,1,1,1,1,1,1,1,1,1,1,1,1,1,1,1,1,1,1,1,1,1,1,1,1,1,1,1,1,1,1,1,1,1,1,1,1,1,1,1,1,1,1,1,1,1,1,1,1,1,1,1,1,1,1,1,1,1,1,1,1,1,1,1,1,1,1,1,1,1,1,1,1,1,1,1,1,1,1,1,1,1,1,1,1,1,1,1,1,1"
dtnsim.node[9].app.start = "11,5,17,8,14,5,9,19,15,10,6,5,8,16,2,10,3,7,5,3,4,19,20,11,4,17,6,4,15,15,11,9,4,15,2,18,2,16,2,11,4,1,19,13,12,9,13,9,1,4,9,16,2,14,19,2,17,20,17,4,13,2,1,3,7,20,15,4,16,5,7,9,14,4,15,19,4,19,4,3,12,16,19,8,5,2,14,5,4,16,9,18,11,5,14,18,1,18,1,15"
dtnsim.node[9].app.destinationEid = "12,72,12,113,52,55,23,5,90,85,26,55,73,90,34,25,63,111,97,103,107,47,22,8,69,104,18,41,31,8,29,32,27,49,13,50,13,115,15,32,39,114,25,69,73,85,49,10,79,79,59,87,117,66,41,8,36,82,2,85,109,93,114,8,21,14,109,83,61,63,29,38,39,18,12,97,47,107,43,54,114,109,99,57,81,98,15,82,103,63,25,112,5,117,105,15,87,99,21,44"
dtnsim.node[9].app.size = "500,100,100,100,500,500,100,500,100,200,50,200,50,50,500,200,200,500,100,200,100,100,50,500,200,50,500,100,200,200,200,100,200,200,50,100,100,500,100,500,100,200,200,50,500,200,50,100,100,50,500,500,500,500,50,500,500,50,100,50,500,500,50,200,100,500,200,100,200,500,200,100,50,500,200,50,50,50,500,500,100,500,500,200,500,200,500,100,500,500,500,50,200,50,50,200,200,500,100,100"
        # Node 10 random traffic
dtnsim.node[10].app.enable = true
dtnsim.node[10].app.bundlesNumber = "1,1,1,1,1,1,1,1,1,1,1,1,1,1,1,1,1,1,1,1,1,1,1,1,1,1,1,1,1,1,1,1,1,1,1,1,1,1,1,1,1,1,1,1,1,1,1,1,1,1,1,1,1,1,1,1,1,1,1,1,1,1,1,1,1,1,1,1,1,1,1,1,1,1,1,1,1,1,1,1,1,1,1,1,1,1,1,1,1,1,1,1,1,1,1,1,1,1,1,1"
dtnsim.node[10].app.start = "14,4,16,9,5,10,6,9,18,12,14,15,3,13,18,20,5,4,13,13,10,19,16,10,16,18,5,5,4,10,16,6,20,17,1,14,6,1,12,13,4,2,12,6,2,11,9,2,12,11,1,19,19,17,10,14,4,19,12,4,5,1,14,9,10,7,3,16,8,16,13,19,9,10,13,5,18,12,3,13,4,10,20,11,17,8,13,9,12,20,8,16,8,16,12,4,1,16,2,19"
dtnsim.node[10].app.destinationEid = "6,67,55,11,19,87,80,79,2,12,88,77,58,29,112,108,58,19,90,16,99,56,97,36,14,114,12,110,68,78,75,5,88,112,35,74,11,79,1,31,4,25,72,2,71,91,81,110,99,46,107,32,101,42,24,30,13,51,62,82,94,7,113,100,60,56,32,58,101,16,37,71,26,88,1,111,100,116,104,86,23,62,101,119,22,3,44,37,35,8,1,18,26,12,14,90,23,89,15,50"
dtnsim.node[10].app.size = "50,50,500,50,500,50,200,100,500,50,100,200,100,100,100,500,200,500,200,500,50,500,500,500,200,500,100,200,50,50,500,200,500,100,200,100,50,50,100,50,500,50,200,50,200,100,200,200,50,500,200,100,100,500,50,100,500,500,500,100,100,200,200,100,500,500,100,50,50,200,200,200,50,500,500,500,50,200,50,50,200,50,500,100,50,50,50,500,500,200,200,50,50,50,100,50,500,200,200,500"
        # Node 11 random traffic
dtnsim.node[11].app.enable = true
dtnsim.node[11].app.bundlesNumber = "1,1,1,1,1,1,1,1,1,1,1,1,1,1,1,1,1,1,1,1,1,1,1,1,1,1,1,1,1,1,1,1,1,1,1,1,1,1,1,1,1,1,1,1,1,1,1,1,1,1,1,1,1,1,1,1,1,1,1,1,1,1,1,1,1,1,1,1,1,1,1,1,1,1,1,1,1,1,1,1,1,1,1,1,1,1,1,1,1,1,1,1,1,1,1,1,1,1,1,1"
dtnsim.node[11].app.start = "13,11,6,7,11,19,12,8,15,10,14,8,10,10,10,9,5,7,6,13,5,7,9,2,6,2,8,6,11,2,16,16,11,11,13,7,17,4,17,10,6,18,3,9,4,15,19,2,10,6,7,19,3,13,2,11,20,18,12,9,8,7,10,1,16,15,9,8,10,3,11,17,1,14,14,6,14,20,2,15,10,9,7,2,17,2,13,3,20,9,6,14,18,10,13,17,2,5,18,17"
dtnsim.node[11].app.destinationEid = "45,38,92,59,13,62,20,24,117,15,90,9,68,35,118,52,78,49,111,38,115,115,78,8,28,31,95,51,77,116,37,77,13,7,103,86,57,26,87,8,94,1,92,6,24,3,104,117,1,42,77,88,110,28,76,6,96,14,9,2,7,77,52,19,18,22,119,96,53,10,13,32,30,69,58,63,56,69,81,74,37,94,22,42,30,112,20,39,43,80,68,75,117,64,3,42,49,98,1,38"
dtnsim.node[11].app.size = "200,100,50,50,100,200,100,50,50,200,500,200,200,200,500,200,500,200,100,100,200,50,50,200,100,100,500,200,50,500,500,200,100,50,200,200,100,200,100,500,200,50,50,100,50,50,200,50,500,500,500,200,100,500,500,50,200,100,50,50,200,100,500,200,200,50,500,200,50,200,50,50,100,500,200,500,50,500,200,200,50,500,100,500,500,500,500,100,200,100,200,200,200,200,500,100,500,500,200,100"
        # Node 12 random traffic
dtnsim.node[12].app.enable = true
dtnsim.node[12].app.bundlesNumber = "1,1,1,1,1,1,1,1,1,1,1,1,1,1,1,1,1,1,1,1,1,1,1,1,1,1,1,1,1,1,1,1,1,1,1,1,1,1,1,1,1,1,1,1,1,1,1,1,1,1,1,1,1,1,1,1,1,1,1,1,1,1,1,1,1,1,1,1,1,1,1,1,1,1,1,1,1,1,1,1,1,1,1,1,1,1,1,1,1,1,1,1,1,1,1,1,1,1,1,1"
dtnsim.node[12].app.start = "7,2,12,11,4,11,1,10,7,8,16,1,10,11,10,12,18,5,1,12,5,15,4,2,19,3,14,19,9,11,14,8,5,3,20,15,13,16,6,17,4,3,19,2,5,2,18,2,6,7,7,19,18,10,4,5,3,10,6,7,8,14,9,19,7,7,11,3,18,7,14,16,10,5,20,18,11,2,16,2,1,7,17,19,6,3,4,9,9,14,11,14,16,18,13,16,6,15,12,19"
dtnsim.node[12].app.destinationEid = "36,96,119,8,120,120,19,64,41,57,41,21,60,20,34,85,30,69,66,116,106,15,5,46,65,1,72,5,72,76,30,98,99,28,92,71,77,2,109,9,113,64,19,87,1,39,35,49,8,27,48,94,8,35,66,73,54,32,49,18,25,102,70,6,31,9,53,113,76,50,14,102,89,25,34,97,25,118,109,50,52,85,75,68,35,24,58,16,92,49,83,118,99,116,11,14,9,79,60,10"
dtnsim.node[12].app.size = "500,100,50,200,100,100,50,500,500,500,100,100,50,50,200,200,500,50,500,500,100,100,50,100,100,500,50,100,100,200,100,50,200,100,50,200,500,50,200,500,100,200,100,200,100,50,100,50,50,50,200,100,200,200,500,200,100,500,500,200,500,100,500,100,500,200,500,500,500,50,50,200,100,500,50,500,100,50,50,50,500,200,200,100,200,200,500,500,50,200,50,50,500,200,50,50,100,500,100,500"
        # Node 13 random traffic
dtnsim.node[13].app.enable = true
dtnsim.node[13].app.bundlesNumber = "1,1,1,1,1,1,1,1,1,1,1,1,1,1,1,1,1,1,1,1,1,1,1,1,1,1,1,1,1,1,1,1,1,1,1,1,1,1,1,1,1,1,1,1,1,1,1,1,1,1,1,1,1,1,1,1,1,1,1,1,1,1,1,1,1,1,1,1,1,1,1,1,1,1,1,1,1,1,1,1,1,1,1,1,1,1,1,1,1,1,1,1,1,1,1,1,1,1,1,1"
dtnsim.node[13].app.start = "8,12,13,15,4,13,13,12,17,20,8,2,4,8,12,14,6,3,16,3,13,2,8,6,15,14,2,5,6,9,1,13,1,13,1,5,2,14,10,12,2,18,13,7,5,18,11,19,13,1,18,6,2,6,10,7,5,5,13,11,4,15,11,18,5,20,17,20,16,7,20,3,3,3,17,16,2,15,7,6,15,10,4,8,14,18,19,1,14,2,2,12,17,11,17,4,5,6,18,10"
dtnsim.node[13].app.destinationEid = "40,58,42,75,32,110,12,3,99,45,21,98,108,30,87,24,2,49,22,55,14,25,29,18,2,66,91,15,54,37,22,100,46,37,48,29,40,120,114,15,4,48,106,40,65,76,34,85,115,54,116,46,81,7,112,68,23,5,38,113,55,37,53,57,31,80,38,33,83,28,57,118,68,87,64,63,89,87,32,35,94,31,54,73,92,29,12,117,31,112,33,31,37,111,79,93,29,82,35,27"
dtnsim.node[13].app.size = "100,200,500,500,200,200,500,100,500,100,200,100,500,500,200,500,50,200,200,50,50,100,500,100,100,50,100,100,100,500,50,50,50,200,500,100,500,200,50,500,500,200,200,100,100,500,500,100,200,100,500,50,50,100,100,500,500,50,50,200,200,100,100,500,200,500,500,100,200,200,100,100,100,200,500,500,100,200,50,50,500,500,50,500,100,100,50,100,200,100,200,500,50,50,50,100,50,500,100,500"
        # Node 14 random traffic
dtnsim.node[14].app.enable = true
dtnsim.node[14].app.bundlesNumber = "1,1,1,1,1,1,1,1,1,1,1,1,1,1,1,1,1,1,1,1,1,1,1,1,1,1,1,1,1,1,1,1,1,1,1,1,1,1,1,1,1,1,1,1,1,1,1,1,1,1,1,1,1,1,1,1,1,1,1,1,1,1,1,1,1,1,1,1,1,1,1,1,1,1,1,1,1,1,1,1,1,1,1,1,1,1,1,1,1,1,1,1,1,1,1,1,1,1,1,1"
dtnsim.node[14].app.start = "20,17,7,7,17,19,4,12,9,17,2,10,4,18,13,20,18,19,2,1,2,6,16,2,11,13,1,9,13,17,4,12,16,18,11,20,6,11,14,3,10,13,6,8,11,6,13,10,7,15,7,4,18,2,18,14,11,20,20,16,3,10,5,20,18,18,18,17,12,17,7,18,4,3,11,7,12,12,9,5,13,19,7,9,18,7,19,14,13,4,8,2,19,6,13,19,17,7,19,17"
dtnsim.node[14].app.destinationEid = "33,17,25,3,56,4,7,45,93,10,106,30,74,38,114,22,95,69,102,18,91,43,18,109,45,76,37,39,24,64,55,30,11,41,12,102,38,35,23,24,120,31,24,12,30,10,116,95,40,56,68,9,31,10,86,22,39,42,52,78,51,68,39,82,97,109,75,73,70,109,116,29,3,18,101,52,119,74,95,71,35,18,63,20,22,86,97,38,11,110,72,63,40,96,33,108,86,29,72,111"
dtnsim.node[14].app.size = "50,100,200,100,50,50,500,50,100,100,200,50,200,200,50,500,200,50,500,50,50,200,500,500,50,200,100,500,50,200,100,500,100,500,500,50,100,50,200,500,50,100,500,500,500,200,100,200,200,50,500,200,200,200,500,500,500,50,500,100,50,500,100,500,500,50,500,200,200,100,200,200,200,200,100,200,100,50,200,50,500,100,100,200,500,500,500,100,50,50,100,500,100,50,500,50,50,500,500,100"
        # Node 15 random traffic
dtnsim.node[15].app.enable = true
dtnsim.node[15].app.bundlesNumber = "1,1,1,1,1,1,1,1,1,1,1,1,1,1,1,1,1,1,1,1,1,1,1,1,1,1,1,1,1,1,1,1,1,1,1,1,1,1,1,1,1,1,1,1,1,1,1,1,1,1,1,1,1,1,1,1,1,1,1,1,1,1,1,1,1,1,1,1,1,1,1,1,1,1,1,1,1,1,1,1,1,1,1,1,1,1,1,1,1,1,1,1,1,1,1,1,1,1,1,1"
dtnsim.node[15].app.start = "18,16,1,14,6,8,17,15,13,1,19,6,19,4,8,16,5,18,20,2,17,11,14,20,5,15,15,4,17,12,2,20,7,18,5,1,3,19,3,6,3,4,15,18,20,16,11,5,17,3,14,18,2,6,8,10,14,2,17,9,17,20,20,15,19,7,4,5,3,12,4,10,5,18,13,2,16,3,9,17,17,19,15,18,4,9,1,3,11,19,13,11,10,1,10,2,18,9,17,5"
dtnsim.node[15].app.destinationEid = "110,118,84,97,70,35,33,60,68,6,84,99,72,89,46,82,59,101,45,94,78,53,69,92,98,10,29,30,27,86,11,10,110,74,34,120,10,9,91,29,106,99,56,85,118,11,12,120,94,76,33,34,112,35,56,65,24,100,50,116,25,117,67,20,111,94,11,77,70,57,35,70,94,115,113,27,109,99,30,60,80,11,97,111,115,43,8,81,71,39,7,14,52,55,78,94,104,95,11,73"
dtnsim.node[15].app.size = "100,100,500,100,100,50,50,200,100,100,100,50,200,500,200,500,50,50,50,50,100,50,500,500,50,500,200,200,50,100,100,500,50,200,50,200,200,100,200,50,200,500,50,500,100,50,50,100,500,500,500,500,500,100,500,50,200,500,500,50,200,100,50,500,500,100,200,500,100,50,200,100,200,500,100,100,500,100,500,500,500,50,50,500,200,200,200,50,200,100,200,50,500,50,50,50,200,100,100,500"
        # Node 16 random traffic
dtnsim.node[16].app.enable = true
dtnsim.node[16].app.bundlesNumber = "1,1,1,1,1,1,1,1,1,1,1,1,1,1,1,1,1,1,1,1,1,1,1,1,1,1,1,1,1,1,1,1,1,1,1,1,1,1,1,1,1,1,1,1,1,1,1,1,1,1,1,1,1,1,1,1,1,1,1,1,1,1,1,1,1,1,1,1,1,1,1,1,1,1,1,1,1,1,1,1,1,1,1,1,1,1,1,1,1,1,1,1,1,1,1,1,1,1,1,1"
dtnsim.node[16].app.start = "17,12,20,11,2,2,7,3,19,4,3,7,6,18,18,10,12,11,5,11,4,5,16,18,6,9,2,8,16,14,16,9,15,19,9,11,1,19,4,9,13,20,3,6,1,7,13,1,10,2,20,3,15,5,8,14,11,19,14,7,17,12,2,12,19,8,9,7,20,19,7,10,19,10,17,20,9,11,4,7,7,8,3,4,14,2,2,8,19,1,7,16,13,9,10,6,16,2,9,18"
dtnsim.node[16].app.destinationEid = "91,113,86,66,85,92,117,114,55,5,90,112,6,76,115,38,84,19,95,100,105,115,67,9,23,70,102,37,25,52,63,90,39,74,22,106,92,93,107,28,18,20,73,114,119,88,120,99,75,26,116,52,76,66,75,6,10,120,38,59,55,31,106,18,29,33,99,82,72,120,72,69,113,114,67,114,58,89,9,99,18,5,87,97,79,65,77,83,86,55,10,119,55,18,42,82,96,14,29,40"
dtnsim.node[16].app.size = "200,100,50,50,200,100,100,200,50,100,200,200,50,500,200,50,500,100,100,200,50,50,500,50,50,500,500,50,200,200,200,100,200,200,100,500,500,200,500,100,500,50,100,50,100,50,100,200,100,50,200,100,50,100,500,100,200,50,50,200,50,500,500,200,50,200,200,100,50,500,50,200,50,100,50,50,200,100,100,100,50,200,100,50,200,100,50,100,100,50,500,50,200,100,100,500,50,200,200,100"
        # Node 17 random traffic
dtnsim.node[17].app.enable = true
dtnsim.node[17].app.bundlesNumber = "1,1,1,1,1,1,1,1,1,1,1,1,1,1,1,1,1,1,1,1,1,1,1,1,1,1,1,1,1,1,1,1,1,1,1,1,1,1,1,1,1,1,1,1,1,1,1,1,1,1,1,1,1,1,1,1,1,1,1,1,1,1,1,1,1,1,1,1,1,1,1,1,1,1,1,1,1,1,1,1,1,1,1,1,1,1,1,1,1,1,1,1,1,1,1,1,1,1,1,1"
dtnsim.node[17].app.start = "11,5,6,9,17,17,4,9,8,14,18,5,17,9,18,9,16,19,19,15,3,3,5,9,5,5,9,9,16,3,3,13,7,2,3,7,2,14,8,8,4,10,7,9,5,19,11,14,11,20,14,19,9,8,2,11,5,3,17,14,17,9,18,1,18,14,7,4,4,12,8,12,18,17,7,4,7,6,18,11,20,5,8,11,16,6,18,6,6,17,20,9,12,4,3,7,11,18,3,11"
dtnsim.node[17].app.destinationEid = "107,89,7,53,71,49,60,49,61,4,50,39,32,74,35,115,60,81,64,36,102,98,51,95,54,63,38,104,16,52,41,92,54,116,5,84,16,106,84,8,51,27,28,47,112,7,92,64,102,63,66,82,32,12,102,95,52,86,71,23,47,86,74,53,103,112,50,78,89,87,95,120,36,10,10,21,45,5,33,98,45,53,25,49,34,110,93,41,27,30,21,66,42,15,19,8,95,117,10,33"
dtnsim.node[17].app.size = "500,500,200,200,100,200,100,50,50,200,500,100,50,50,100,50,100,100,50,500,200,100,500,50,500,50,200,50,500,100,50,500,500,500,100,200,100,50,100,200,500,50,500,500,200,200,500,50,200,200,100,100,200,500,50,50,500,50,100,200,500,200,50,500,500,500,100,100,500,200,50,100,100,100,50,200,100,100,100,50,100,500,200,50,100,200,50,200,100,200,100,200,500,500,100,500,200,200,100,500"
        # Node 18 random traffic
dtnsim.node[18].app.enable = true
dtnsim.node[18].app.bundlesNumber = "1,1,1,1,1,1,1,1,1,1,1,1,1,1,1,1,1,1,1,1,1,1,1,1,1,1,1,1,1,1,1,1,1,1,1,1,1,1,1,1,1,1,1,1,1,1,1,1,1,1,1,1,1,1,1,1,1,1,1,1,1,1,1,1,1,1,1,1,1,1,1,1,1,1,1,1,1,1,1,1,1,1,1,1,1,1,1,1,1,1,1,1,1,1,1,1,1,1,1,1"
dtnsim.node[18].app.start = "15,13,4,4,5,2,17,16,2,19,16,4,20,17,12,8,2,14,12,20,5,12,6,1,5,11,6,12,5,15,2,6,3,10,7,4,11,3,1,6,2,12,6,3,20,13,6,15,12,2,12,17,17,20,11,11,4,14,5,1,4,19,7,7,12,3,19,1,17,11,5,8,5,7,20,6,13,5,11,7,14,14,13,15,10,1,19,12,15,8,3,11,20,7,3,8,3,19,10,18"
dtnsim.node[18].app.destinationEid = "13,31,9,37,114,52,21,4,27,3,44,31,103,112,14,89,34,31,37,76,108,5,12,69,102,65,91,39,50,37,32,67,88,6,1,9,55,63,51,48,72,46,66,10,99,70,19,119,106,70,93,41,29,83,7,103,7,47,61,85,45,83,119,6,115,10,2,26,93,55,53,54,45,34,39,99,104,56,17,79,6,86,56,80,105,26,11,70,71,46,104,65,114,89,12,118,65,40,105,58"
dtnsim.node[18].app.size = "200,50,200,500,50,50,200,500,500,500,50,200,50,100,100,500,500,200,100,500,200,50,50,100,100,100,50,50,500,100,50,50,200,50,100,200,100,500,100,50,200,200,50,50,100,200,100,100,200,50,50,200,100,50,500,50,50,200,50,100,200,50,500,100,500,500,500,50,500,100,50,500,200,100,200,500,200,100,200,500,100,50,200,50,500,100,200,200,500,200,200,100,50,500,50,50,500,100,50,50"
        # Node 19 random traffic
dtnsim.node[19].app.enable = true
dtnsim.node[19].app.bundlesNumber = "1,1,1,1,1,1,1,1,1,1,1,1,1,1,1,1,1,1,1,1,1,1,1,1,1,1,1,1,1,1,1,1,1,1,1,1,1,1,1,1,1,1,1,1,1,1,1,1,1,1,1,1,1,1,1,1,1,1,1,1,1,1,1,1,1,1,1,1,1,1,1,1,1,1,1,1,1,1,1,1,1,1,1,1,1,1,1,1,1,1,1,1,1,1,1,1,1,1,1,1"
dtnsim.node[19].app.start = "5,6,17,9,11,12,13,15,18,15,8,13,7,5,8,2,11,2,4,5,14,16,8,11,12,5,8,17,13,1,19,17,16,2,17,3,17,7,1,15,15,17,11,9,9,9,18,13,19,7,14,20,1,15,18,9,1,13,11,5,13,12,20,13,11,14,18,15,19,10,10,17,2,20,6,2,16,2,11,12,11,14,18,16,18,4,17,3,15,8,13,16,12,15,14,6,2,12,20,20"
dtnsim.node[19].app.destinationEid = "61,70,27,23,9,28,81,83,63,9,104,85,82,23,74,40,53,33,33,50,86,13,27,55,96,53,25,82,9,51,73,30,78,102,110,15,107,99,18,78,5,37,113,62,102,24,70,87,77,47,44,33,85,117,38,84,107,110,80,45,30,116,57,94,97,62,81,108,15,104,118,102,21,115,91,7,12,92,23,91,28,9,48,119,105,16,48,87,112,39,15,12,45,9,95,22,5,107,46,80"
dtnsim.node[19].app.size = "200,100,200,50,500,200,200,50,50,50,500,100,500,200,50,50,100,500,500,50,200,50,100,100,500,200,50,200,50,100,100,500,100,500,50,500,200,200,100,500,200,200,200,500,200,200,100,50,50,500,200,500,50,100,500,100,50,50,100,500,500,50,50,100,200,100,500,50,100,100,100,100,100,50,50,500,500,100,500,500,100,200,200,200,50,100,100,500,200,100,100,200,500,500,200,100,200,500,200,200"
        # Node 20 random traffic
dtnsim.node[20].app.enable = true
dtnsim.node[20].app.bundlesNumber = "1,1,1,1,1,1,1,1,1,1,1,1,1,1,1,1,1,1,1,1,1,1,1,1,1,1,1,1,1,1,1,1,1,1,1,1,1,1,1,1,1,1,1,1,1,1,1,1,1,1,1,1,1,1,1,1,1,1,1,1,1,1,1,1,1,1,1,1,1,1,1,1,1,1,1,1,1,1,1,1,1,1,1,1,1,1,1,1,1,1,1,1,1,1,1,1,1,1,1,1"
dtnsim.node[20].app.start = "4,8,8,9,13,6,14,4,1,20,15,5,1,19,12,20,3,13,16,9,5,20,3,4,16,5,3,9,2,18,2,18,4,19,5,15,10,1,4,18,14,16,6,3,6,18,7,18,6,8,1,3,5,15,6,6,15,15,11,18,19,20,2,13,17,4,9,3,13,3,6,8,16,8,17,3,6,2,9,8,19,11,19,13,2,4,11,10,14,13,9,17,4,6,18,16,5,13,13,14"
dtnsim.node[20].app.destinationEid = "29,115,37,87,21,52,98,119,63,98,43,71,13,12,22,23,29,49,36,82,17,117,73,65,29,110,65,46,98,105,106,97,104,106,45,40,35,19,100,92,84,116,2,45,25,84,23,23,59,37,36,107,3,94,104,43,17,25,97,52,60,114,110,19,120,115,8,33,72,90,2,107,30,114,13,109,109,41,3,44,120,109,67,25,58,67,26,59,18,33,6,39,27,90,109,44,22,39,82,10"
dtnsim.node[20].app.size = "100,200,50,50,500,100,200,500,500,500,200,100,500,200,50,200,500,200,500,200,500,500,500,200,50,500,100,200,200,100,500,50,100,200,200,200,500,100,500,100,200,100,200,500,500,200,500,50,50,500,500,50,500,100,500,500,500,100,200,200,200,500,200,50,500,200,500,200,100,200,200,500,100,500,100,200,500,500,100,200,50,500,500,200,500,50,500,200,200,100,100,50,50,50,50,100,500,50,100,500"
        # Node 21 random traffic
dtnsim.node[21].app.enable = true
dtnsim.node[21].app.bundlesNumber = "1,1,1,1,1,1,1,1,1,1,1,1,1,1,1,1,1,1,1,1,1,1,1,1,1,1,1,1,1,1,1,1,1,1,1,1,1,1,1,1,1,1,1,1,1,1,1,1,1,1,1,1,1,1,1,1,1,1,1,1,1,1,1,1,1,1,1,1,1,1,1,1,1,1,1,1,1,1,1,1,1,1,1,1,1,1,1,1,1,1,1,1,1,1,1,1,1,1,1,1"
dtnsim.node[21].app.start = "19,12,5,12,9,5,16,5,17,6,13,5,14,14,15,1,15,8,8,4,19,8,6,5,5,19,4,9,10,12,19,7,14,13,19,14,14,13,17,17,3,6,5,10,20,4,14,5,20,1,2,3,17,12,12,15,1,10,8,15,14,6,16,8,13,20,14,16,6,7,14,3,2,8,6,3,20,16,13,10,15,3,5,13,20,8,20,1,3,5,4,2,12,7,7,2,4,17,6,2"
dtnsim.node[21].app.destinationEid = "68,109,97,101,27,108,70,58,6,43,29,6,102,5,95,40,20,83,97,56,71,97,74,77,78,103,25,71,55,27,97,116,120,30,87,102,43,119,98,13,23,54,23,69,39,34,57,38,116,86,41,60,25,55,51,24,80,23,112,65,82,33,33,100,20,44,65,28,42,13,17,8,111,86,42,38,53,13,56,28,30,34,54,99,61,108,116,65,28,68,83,84,116,118,116,52,18,33,17,79"
dtnsim.node[21].app.size = "50,50,50,500,100,50,100,50,500,200,500,100,200,50,50,200,50,500,50,100,100,200,200,50,200,200,200,500,200,100,500,100,500,500,50,200,100,50,50,50,50,500,50,500,100,200,200,500,200,100,500,50,50,50,100,500,200,50,50,100,500,100,500,500,50,50,200,50,200,50,200,500,200,50,100,200,50,100,500,200,100,200,100,50,100,100,200,200,500,50,500,100,50,50,100,50,100,50,100,500"
        # Node 22 random traffic
dtnsim.node[22].app.enable = true
dtnsim.node[22].app.bundlesNumber = "1,1,1,1,1,1,1,1,1,1,1,1,1,1,1,1,1,1,1,1,1,1,1,1,1,1,1,1,1,1,1,1,1,1,1,1,1,1,1,1,1,1,1,1,1,1,1,1,1,1,1,1,1,1,1,1,1,1,1,1,1,1,1,1,1,1,1,1,1,1,1,1,1,1,1,1,1,1,1,1,1,1,1,1,1,1,1,1,1,1,1,1,1,1,1,1,1,1,1,1"
dtnsim.node[22].app.start = "16,17,3,2,8,15,10,8,6,1,17,17,2,4,2,8,19,6,13,7,12,5,7,14,8,4,9,1,11,1,3,7,17,5,19,10,3,6,15,3,10,12,6,4,16,12,12,7,14,19,4,16,4,20,6,2,6,10,20,3,8,18,8,11,6,19,8,1,11,5,12,20,6,19,15,7,16,12,4,13,8,16,4,6,16,2,11,13,2,3,19,7,3,19,11,6,15,14,17,19"
dtnsim.node[22].app.destinationEid = "2,11,29,90,42,115,103,21,10,39,87,20,83,2,96,110,7,59,34,62,29,20,1,21,58,56,15,48,113,23,12,95,99,99,36,73,108,20,47,13,79,75,59,92,18,65,97,81,50,100,102,3,73,9,48,102,34,52,13,3,35,18,6,113,99,120,21,60,93,23,25,97,54,24,103,39,78,20,40,36,42,27,12,17,79,41,45,103,65,34,57,30,105,51,82,64,57,20,4,59"