[General]
network = src.dtnsim										
repeat = 1
allow-object-stealing-on-deletion = true

# Simulation end time
sim-time-limit = 84600s

# Nodes quantity (identifiers (EiDs) matches their index, EiD=0 is ignored)			
dtnsim.nodesNumber = 180
dtnsim.node[*].icon = "satellite"

# Nodes's failure rates
dtnsim.node[*].fault.enable = false
dtnsim.node[*].fault.meanTTF = 0s
dtnsim.node[*].fault.meanTTR = 0s

# Mobility
dtnsim.node[*].hasMobility = true
dtnsim.node[*].norad.satIndex = parentIndex()
dtnsim.node[*].norad.satName = "sat"
**.updateInterval = 20s
**.numOfSats = 180
**.satPerPlane = 15
**.altitude = 540
**.planes = 12
**.phaseOffset = 7

dtnsim.node[*].dtn.routing = "antop"
dtnsim.node[*].dtn.printRoutingDebug = true

# --- Random Traffic Configuration ---
# Node 1 random conversational traffic
dtnsim.node[1].app.enable = true
dtnsim.node[1].app.bundlesNumber = "5,3,3,2,1,5,3,4,5,4,2,4,5,2,3,2,2,2,1,3,2,4,4,1,5,5,5,4,4,4,3,3,1,2,1,5,1,1,5,3,3,1,3,5,5,1,5,2,2,1,3,2,4,3,1,3,5,4,4,3,2,1,3,3,3,5,4,4,2,4,5,5,1,5,2,3,2,1,4,1,5,4,2,1,1,2,4,4,2,5,5,5,1,5,5,4,3,3,5,5"
dtnsim.node[1].app.start = "90,44,5,25,9,99,46,8,79,59,81,91,96,44,43,46,66,20,39,30,6,12,49,89,6,22,36,30,56,54,73,66,64,7,84,100,55,32,97,55,29,33,15,8,62,45,25,58,71,41,25,74,90,37,8,17,56,67,57,74,9,52,16,93,80,32,23,15,15,56,8,11,19,59,61,66,77,35,41,79,74,91,92,40,59,15,36,85,65,20,97,91,74,79,13,19,79,53,73,33"
dtnsim.node[1].app.destinationEid = "2,2,2,2,2,2,2,2,2,2,2,2,2,2,2,2,2,2,2,2,2,2,2,2,2,2,2,2,2,2,2,2,2,2,2,2,2,2,2,2,2,2,2,2,2,2,2,2,2,2,2,2,2,2,2,2,2,2,2,2,2,2,2,2,2,2,2,2,2,2,2,2,2,2,2,2,2,2,2,2,2,2,2,2,2,2,2,2,2,2,2,2,2,2,2,2,2,2,2,2"
dtnsim.node[1].app.size = "100,200,200,200,50,100,200,100,100,50,500,200,500,500,200,50,200,100,500,500,100,500,500,500,100,500,100,100,50,100,200,50,500,200,100,50,200,50,50,200,200,100,50,100,100,50,500,200,50,500,100,500,200,200,50,500,200,500,50,200,100,500,100,200,200,500,500,50,50,500,100,500,50,100,200,200,500,100,200,500,500,50,500,50,200,100,200,50,200,100,500,100,500,500,200,500,200,100,100,100"
# Node 2 random conversational traffic
dtnsim.node[2].app.enable = true
dtnsim.node[2].app.bundlesNumber = "2,2,1,5,4,4,5,1,4,5,4,1,3,4,4,3,2,5,3,2,5,3,4,4,2,5,3,3,5,2,4,2,1,5,5,3,2,5,5,1,5,3,2,2,1,3,5,1,4,1,5,1,5,5,2,3,1,1,5,4,3,4,2,2,2,3,2,3,2,3,5,2,1,5,1,4,1,4,3,3,4,5,3,5,1,4,4,2,5,5,5,5,4,1,1,1,3,4,2,3"
dtnsim.node[2].app.start = "93,10,30,100,11,69,83,100,47,28,47,7,21,30,41,36,56,83,70,14,94,100,61,41,61,34,37,24,63,29,63,74,45,58,13,61,17,81,39,30,25,24,59,23,67,67,84,36,43,81,78,97,67,20,38,94,70,80,85,22,86,60,76,81,55,50,89,69,59,66,99,41,52,43,76,28,51,25,10,95,7,97,64,28,66,79,64,71,13,74,59,94,94,45,41,7,91,81,65,14"
dtnsim.node[2].app.destinationEid = "1,1,1,1,1,1,1,1,1,1,1,1,1,1,1,1,1,1,1,1,1,1,1,1,1,1,1,1,1,1,1,1,1,1,1,1,1,1,1,1,1,1,1,1,1,1,1,1,1,1,1,1,1,1,1,1,1,1,1,1,1,1,1,3,3,3,3,3,3,3,3,3,3,3,3,3,3,3,3,3,3,3,3,3,3,3,3,3,3,3,3,3,3,3,3,3,3,3,3,3"
dtnsim.node[2].app.size = "100,50,100,50,500,50,200,50,100,500,50,200,200,200,200,500,50,50,50,100,100,50,50,500,500,100,500,200,50,50,200,100,100,50,50,50,50,50,200,500,100,500,500,50,50,100,50,100,100,500,50,100,50,50,100,50,50,50,100,50,500,500,500,100,200,500,100,500,50,100,500,50,500,100,50,100,100,200,50,50,500,100,100,50,100,500,500,50,200,500,50,50,200,500,50,500,100,100,100,500"
# Node 3 random conversational traffic
dtnsim.node[3].app.enable = true
dtnsim.node[3].app.bundlesNumber = "4,3,4,5,3,5,3,3,5,3,3,5,3,5,1,4,4,4,3,4,3,2,5,3,1,3,5,5,1,4,1,2,2,3,4,1,1,1,5,5,5,3,4,4,4,3,5,3,5,5,5,2,2,5,1,2,2,1,2,1,2,4,5,4,3,5,2,4,4,3,2,4,4,3,3,1,1,1,3,4,2,5,2,4,1,2,1,4,4,1,5,5,3,3,1,1,3,5,5,1"
dtnsim.node[3].app.start = "89,57,56,98,67,100,51,62,46,36,52,11,98,12,75,71,75,68,97,97,55,43,11,96,91,66,18,19,95,81,85,61,73,12,34,91,11,60,56,34,55,21,14,78,18,15,66,6,60,84,3,26,28,37,12,97,26,53,70,38,99,19,98,87,58,29,30,36,13,66,57,57,25,56,24,100,98,67,87,3,38,91,45,9,51,35,63,39,61,37,27,57,91,86,33,85,21,69,51,65"
dtnsim.node[3].app.destinationEid = "2,2,2,2,2,2,2,2,2,2,2,2,2,2,2,2,2,2,2,2,2,2,2,2,2,2,2,4,4,4,4,4,4,4,4,4,4,4,4,4,4,4,4,4,4,4,4,4,4,4,4,4,4,4,4,4,4,4,4,4,4,4,4,4,4,4,4,4,4,4,4,4,4,4,4,4,4,4,4,4,4,4,4,4,4,4,4,4,4,4,4,4,4,4,4,4,4,4,4,4"
dtnsim.node[3].app.size = "200,200,200,100,500,200,200,50,50,100,100,100,50,100,50,100,500,500,500,50,500,50,200,50,200,50,50,50,500,50,100,500,50,500,200,50,50,200,500,100,200,100,100,100,50,100,500,200,500,50,100,100,100,50,100,100,100,100,100,500,200,200,200,100,50,50,500,200,500,500,500,500,50,200,50,200,200,500,50,500,50,50,50,50,100,200,50,200,200,100,50,500,50,100,500,50,100,500,50,50"
# Node 4 random conversational traffic
dtnsim.node[4].app.enable = true
dtnsim.node[4].app.bundlesNumber = "2,4,5,5,5,2,4,5,5,3,5,4,1,2,2,1,4,3,2,4,5,4,5,3,5,2,5,2,1,5,3,1,3,2,5,5,2,3,1,4,4,1,3,2,4,5,3,1,5,3,1,2,2,5,1,4,5,5,5,3,3,5,1,5,1,4,4,5,1,1,5,3,2,5,2,5,4,5,4,3,3,2,3,2,4,4,3,2,5,4,3,2,5,1,5,1,3,5,4,1"
dtnsim.node[4].app.start = "21,99,89,92,68,79,14,41,98,13,66,62,38,65,70,12,30,34,39,20,100,34,61,78,100,29,100,32,38,17,69,61,63,27,100,91,51,15,66,63,43,66,34,89,22,75,33,6,42,38,40,49,31,48,52,94,15,63,78,61,21,76,31,30,19,28,15,88,24,6,26,44,15,69,12,19,3,49,76,68,96,69,59,39,57,52,12,25,100,64,29,94,6,72,4,55,85,22,96,31"
dtnsim.node[4].app.destinationEid = "3,3,3,3,3,3,3,3,3,3,3,3,3,3,3,3,3,3,3,3,3,3,3,3,3,3,3,3,3,3,3,3,3,3,3,3,3,3,3,3,3,3,3,3,3,3,5,5,5,5,5,5,5,5,5,5,5,5,5,5,5,5,5,5,5,5,5,5,5,5,5,5,5,5,5,5,5,5,5,5,5,5,5,5,5,5,5,5,5,5,5,5,5,5,5,5,5,5,5,5"
dtnsim.node[4].app.size = "100,50,100,500,100,200,50,50,500,100,50,50,50,200,50,100,200,500,500,50,500,50,50,200,500,50,500,500,500,50,100,200,500,200,500,100,200,500,200,50,200,50,50,500,100,100,50,100,200,200,100,200,500,500,100,200,50,200,100,500,100,100,500,50,200,100,500,200,500,50,200,200,50,100,50,200,500,50,200,100,100,200,50,50,500,200,50,100,100,50,200,500,200,500,500,500,500,50,200,200"
# Node 5 random conversational traffic
dtnsim.node[5].app.enable = true
dtnsim.node[5].app.bundlesNumber = "5,4,4,4,5,4,5,2,3,1,5,4,4,2,2,3,5,3,2,2,4,2,3,2,4,4,1,5,3,1,5,1,1,4,1,5,1,4,5,2,4,3,3,5,4,2,4,4,4,4,4,4,5,3,4,3,2,4,1,2,2,1,2,1,2,4,5,5,1,2,3,4,2,2,4,2,4,2,5,1,1,3,2,2,2,5,5,1,3,1,1,5,4,2,3,3,1,1,1,5"
dtnsim.node[5].app.start = "14,45,47,38,53,57,70,27,20,35,25,32,34,77,14,28,6,84,97,71,63,43,64,17,35,100,74,31,99,8,82,9,97,33,44,53,27,30,96,3,53,38,41,29,44,58,49,84,59,78,51,57,1,93,4,21,63,84,66,33,32,93,62,97,3,22,59,29,43,61,12,100,19,69,69,51,99,45,49,22,56,38,72,63,14,21,31,100,56,75,19,60,30,46,78,25,49,65,56,67"
dtnsim.node[5].app.destinationEid = "4,4,4,4,4,4,4,4,4,4,4,4,4,4,4,4,4,4,4,4,4,4,4,4,4,4,4,4,4,4,4,4,4,4,6,6,6,6,6,6,6,6,6,6,6,6,6,6,6,6,6,6,6,6,6,6,6,6,6,6,6,6,6,6,6,6,6,6,6,6,6,6,6,6,6,6,6,6,6,6,6,6,6,6,6,6,6,6,6,6,6,6,6,6,6,6,6,6,6,6"
dtnsim.node[5].app.size = "200,100,100,50,50,50,50,50,50,50,500,50,50,100,50,500,100,500,100,100,500,200,50,100,100,100,100,200,100,500,500,500,50,100,50,50,500,500,200,500,100,500,50,200,50,100,500,100,200,50,500,100,500,200,500,200,200,50,100,500,50,100,500,200,50,200,100,200,50,100,200,200,200,200,200,500,50,50,100,200,500,50,100,100,500,100,50,500,200,500,50,100,200,200,50,50,50,50,50,50"
# Node 6 random conversational traffic
dtnsim.node[6].app.enable = true
dtnsim.node[6].app.bundlesNumber = "4,4,5,3,1,1,5,5,3,4,4,4,3,2,1,2,1,4,5,5,4,2,5,4,5,4,2,1,5,1,4,5,1,2,2,2,5,3,1,1,2,3,3,4,1,2,4,4,2,3,1,4,3,5,3,4,4,3,2,3,3,1,5,2,4,2,5,5,1,2,4,3,4,3,5,3,1,1,2,1,3,3,3,3,1,1,3,4,4,4,2,3,4,3,3,3,3,4,4,4"
dtnsim.node[6].app.start = "53,63,29,58,39,47,45,68,90,79,94,25,65,76,99,6,32,14,100,22,76,78,52,100,54,26,59,72,23,28,63,85,20,67,35,51,85,33,69,58,40,12,72,68,97,95,100,5,18,100,65,29,18,88,6,78,27,41,11,2,34,23,3,80,66,3,97,8,3,77,89,28,72,91,19,36,35,84,91,96,91,20,59,17,15,100,3,99,7,41,77,22,91,38,75,61,57,84,89,22"
dtnsim.node[6].app.destinationEid = "5,5,5,5,5,5,5,5,5,5,5,5,5,5,5,5,5,5,5,5,5,5,5,5,5,5,5,5,5,5,5,5,5,5,5,5,5,5,5,5,7,7,7,7,7,7,7,7,7,7,7,7,7,7,7,7,7,7,7,7,7,7,7,7,7,7,7,7,7,7,7,7,7,7,7,7,7,7,7,7,7,7,7,7,7,7,7,7,7,7,7,7,7,7,7,7,7,7,7,7"
dtnsim.node[6].app.size = "50,500,200,500,100,50,100,100,50,500,50,200,200,500,50,500,50,200,500,50,50,200,50,50,100,50,100,50,50,500,100,100,500,500,500,500,500,200,100,50,200,500,200,200,50,500,500,100,500,100,500,200,50,200,100,500,200,500,50,50,100,100,100,100,100,200,200,500,50,50,50,50,50,100,500,100,200,100,200,100,50,50,100,50,200,500,50,100,500,50,200,100,100,500,100,200,50,200,100,100"
# Node 7 random conversational traffic
dtnsim.node[7].app.enable = true
dtnsim.node[7].app.bundlesNumber = "2,1,3,2,3,3,3,2,2,5,2,4,2,3,2,1,3,3,1,1,4,2,2,4,3,4,4,1,1,1,3,2,3,2,1,1,2,4,5,3,2,5,1,3,1,5,5,5,3,1,2,2,2,4,4,1,5,2,2,5,3,4,4,5,1,4,5,2,3,2,1,4,4,5,3,2,5,1,4,2,3,3,3,1,1,5,2,5,3,1,3,4,1,1,2,3,4,1,5,4"
dtnsim.node[7].app.start = "20,80,98,100,10,22,100,75,39,96,7,82,45,17,42,26,6,68,98,7,87,74,99,27,42,91,95,95,18,23,100,100,83,24,99,80,63,90,27,48,35,12,15,28,96,70,91,99,77,86,65,16,72,16,97,57,15,57,35,27,61,41,94,32,63,77,64,91,97,76,30,55,32,69,58,13,80,7,64,90,50,99,87,59,28,25,7,7,38,1,31,9,52,84,23,97,43,55,12,66"
dtnsim.node[7].app.destinationEid = "6,6,6,6,6,6,6,6,6,6,6,6,6,6,6,6,6,6,6,6,6,6,6,6,6,6,6,6,6,6,6,6,6,6,6,6,6,6,8,8,8,8,8,8,8,8,8,8,8,8,8,8,8,8,8,8,8,8,8,8,8,8,8,8,8,8,8,8,8,8,8,8,8,8,8,8,8,8,8,8,8,8,8,8,8,8,8,8,8,8,8,8,8,8,8,8,8,8,8,8"
dtnsim.node[7].app.size = "50,50,100,50,200,50,100,200,500,200,100,50,50,500,500,50,500,50,500,500,50,200,100,200,500,100,100,200,50,100,100,200,200,500,500,200,100,200,100,100,200,200,50,100,50,100,50,500,500,200,500,100,50,200,100,200,500,100,100,100,100,200,50,50,100,200,50,500,100,500,50,500,500,200,50,100,500,500,50,100,100,500,100,500,200,50,200,200,100,500,200,500,100,500,500,500,500,50,500,50"
# Node 8 random conversational traffic
dtnsim.node[8].app.enable = true
dtnsim.node[8].app.bundlesNumber = "1,1,5,4,4,3,1,4,4,3,1,1,3,5,3,4,5,4,3,2,5,1,5,5,5,2,4,4,4,3,1,4,2,2,4,4,3,1,4,5,2,1,1,3,5,2,4,2,5,4,4,5,3,5,1,1,2,1,5,4,2,2,1,2,5,5,5,3,1,2,1,5,1,4,2,3,2,4,2,3,4,1,5,5,3,1,1,2,1,2,1,3,5,3,4,3,5,5,1,3"
dtnsim.node[8].app.start = "37,57,36,21,37,98,75,96,79,89,20,79,100,16,39,30,71,51,95,80,73,77,32,70,60,22,83,99,62,30,35,10,8,35,59,85,25,98,47,71,34,87,52,56,22,16,7,55,7,91,21,54,61,38,88,3,84,75,61,81,51,60,90,96,80,72,8,58,24,54,53,87,6,43,53,60,100,84,57,52,19,16,34,69,52,26,41,3,14,41,30,5,90,28,61,47,80,5,25,40"
dtnsim.node[8].app.destinationEid = "7,7,7,7,7,7,7,7,7,7,7,7,7,7,7,7,7,7,7,7,7,7,7,7,7,7,7,7,7,7,7,7,7,7,7,7,7,7,7,9,9,9,9,9,9,9,9,9,9,9,9,9,9,9,9,9,9,9,9,9,9,9,9,9,9,9,9,9,9,9,9,9,9,9,9,9,9,9,9,9,9,9,9,9,9,9,9,9,9,9,9,9,9,9,9,9,9,9,9,9"
dtnsim.node[8].app.size = "200,200,500,50,50,200,200,500,500,200,500,500,500,200,50,100,500,50,500,200,500,100,100,50,200,50,50,200,500,200,200,500,200,100,500,100,100,50,200,100,100,50,50,200,500,50,500,50,500,100,100,50,500,200,100,100,100,200,200,200,100,200,200,50,100,500,200,50,500,50,500,100,200,500,200,50,50,100,200,500,200,100,50,200,50,100,500,200,200,100,50,50,200,50,100,200,50,50,100,50"
# Node 9 random conversational traffic
dtnsim.node[9].app.enable = true
dtnsim.node[9].app.bundlesNumber = "3,1,2,4,1,1,3,4,2,1,1,3,5,5,3,2,4,2,4,3,1,1,5,1,5,1,3,5,2,3,2,4,2,1,4,3,5,3,5,2,5,3,4,2,3,4,5,2,5,3,4,2,3,1,3,1,4,3,5,1,2,2,3,4,3,5,3,2,3,2,1,4,5,1,5,3,3,3,3,3,2,3,4,2,2,1,2,3,2,1,3,2,1,5,3,2,1,1,4,5"
dtnsim.node[9].app.start = "42,65,26,22,10,10,93,24,68,46,93,7,86,70,82,54,69,11,63,34,61,61,100,67,58,17,36,75,58,49,10,20,45,36,14,94,32,52,62,62,40,15,76,55,83,82,10,45,26,55,42,3,17,86,13,82,92,6,80,69,61,99,70,91,25,71,2,14,46,7,8,55,47,62,13,19,56,70,39,84,75,76,69,8,57,8,49,20,8,91,31,58,84,73,34,51,44,98,43,57"
dtnsim.node[9].app.destinationEid = "8,8,8,8,8,8,8,8,8,8,8,8,8,8,8,8,8,8,8,8,8,8,8,8,8,8,8,8,8,8,8,8,8,8,8,8,8,10,10,10,10,10,10,10,10,10,10,10,10,10,10,10,10,10,10,10,10,10,10,10,10,10,10,10,10,10,10,10,10,10,10,10,10,10,10,10,10,10,10,10,10,10,10,10,10,10,10,10,10,10,10,10,10,10,10,10,10,10,10,10"
dtnsim.node[9].app.size = "100,200,200,100,200,500,50,200,100,100,100,200,50,200,50,50,50,500,200,50,200,200,100,100,200,100,500,100,50,200,200,50,500,200,500,200,100,100,200,200,200,100,50,500,500,50,50,200,50,500,200,200,500,100,100,200,200,100,200,100,200,100,200,500,50,200,50,100,50,50,100,100,200,100,500,500,50,100,50,200,50,50,200,50,100,50,200,100,50,100,100,200,100,100,200,200,50,200,200,500"
# Node 10 random conversational traffic
dtnsim.node[10].app.enable = true
dtnsim.node[10].app.bundlesNumber = "4,1,1,2,2,5,3,5,1,3,4,3,4,3,5,2,4,3,2,1,5,2,1,4,5,4,5,2,1,4,5,3,2,3,5,2,3,3,4,1,2,4,2,4,4,1,3,3,3,1,5,3,5,4,4,1,3,1,2,3,3,2,4,5,4,2,2,4,5,2,3,1,5,1,2,4,1,1,5,5,3,2,2,4,2,1,4,3,3,4,3,1,1,4,4,3,3,1,3,4"
dtnsim.node[10].app.start = "72,57,86,51,64,51,11,91,89,100,83,76,72,99,81,8,52,64,56,21,76,91,84,75,13,67,9,22,33,88,57,54,99,59,90,71,78,68,58,10,74,83,55,48,9,59,58,61,7,17,28,41,76,51,15,55,29,38,64,17,13,8,42,5,80,42,64,79,38,32,66,25,49,54,40,67,8,94,24,92,40,89,52,24,98,46,56,24,44,24,33,24,1,70,35,67,8,87,24,3"
dtnsim.node[10].app.destinationEid = "9,9,9,9,9,9,9,9,9,9,9,9,9,9,9,9,9,9,9,9,9,9,9,9,9,9,9,9,9,9,9,9,9,9,11,11,11,11,11,11,11,11,11,11,11,11,11,11,11,11,11,11,11,11,11,11,11,11,11,11,11,11,11,11,11,11,11,11,11,11,11,11,11,11,11,11,11,11,11,11,11,11,11,11,11,11,11,11,11,11,11,11,11,11,11,11,11,11,11,11"
dtnsim.node[10].app.size = "500,100,100,50,500,50,200,200,100,100,200,200,200,500,200,500,500,500,500,100,500,200,500,100,500,500,200,200,100,100,200,50,50,500,50,50,500,50,200,200,50,50,100,50,500,100,500,100,200,100,50,100,500,200,100,50,100,200,100,200,100,500,50,100,100,50,100,200,200,500,50,100,200,100,200,500,50,100,500,500,200,50,500,50,500,50,200,200,500,500,100,50,200,100,200,500,500,100,50,500"
# Node 11 random conversational traffic
dtnsim.node[11].app.enable = true
dtnsim.node[11].app.bundlesNumber = "4,2,3,3,3,5,3,4,2,5,4,4,5,4,4,2,2,1,4,1,1,3,1,1,5,4,4,3,2,3,1,1,5,3,3,1,2,3,1,4,3,2,5,4,2,2,3,3,2,1,5,5,5,1,2,5,3,1,4,2,1,3,1,1,2,4,5,3,3,5,2,5,4,2,3,3,1,2,5,3,2,1,4,5,2,2,5,2,4,4,2,1,5,5,1,1,4,3,4,5"
dtnsim.node[11].app.start = "96,77,20,75,87,56,58,64,68,70,12,21,44,78,58,40,21,18,13,66,85,48,72,50,70,96,97,33,99,56,26,53,41,73,42,71,18,97,26,8,74,66,7,56,55,24,75,15,35,12,41,10,89,49,56,88,37,37,98,46,15,1,30,1,60,70,26,54,28,94,24,12,65,2,39,96,95,54,55,83,2,47,87,35,67,84,15,38,96,65,100,4,1,56,65,38,31,65,70,83"
dtnsim.node[11].app.destinationEid = "10,10,10,10,10,10,10,10,10,10,10,10,10,10,10,10,10,10,10,10,10,10,10,10,10,10,10,10,10,10,10,10,10,10,10,10,10,10,10,10,12,12,12,12,12,12,12,12,12,12,12,12,12,12,12,12,12,12,12,12,12,12,12,12,12,12,12,12,12,12,12,12,12,12,12,12,12,12,12,12,12,12,12,12,12,12,12,12,12,12,12,12,12,12,12,12,12,12,12,12"
dtnsim.node[11].app.size = "500,500,100,200,500,50,100,500,200,500,50,100,50,200,100,50,50,50,50,50,50,500,200,200,200,200,50,200,100,200,200,200,50,50,500,100,100,100,200,200,500,200,500,500,50,50,100,200,500,50,50,100,100,200,200,50,200,100,100,100,500,50,50,50,100,50,100,500,50,200,500,100,100,100,100,500,50,200,50,200,500,50,50,100,200,200,50,50,100,200,500,100,200,50,200,200,100,500,100,500"
# Node 12 random conversational traffic
dtnsim.node[12].app.enable = true
dtnsim.node[12].app.bundlesNumber = "4,2,5,4,4,4,4,5,4,5,3,1,4,1,4,3,3,5,1,4,3,1,4,1,2,3,3,3,2,4,1,4,4,5,1,1,4,4,3,1,3,4,5,5,4,5,5,2,2,2,3,1,5,1,3,5,5,4,1,2,1,5,4,4,2,2,4,5,4,3,4,5,1,1,5,3,3,3,3,1,4,4,3,2,5,3,2,1,3,3,1,1,2,3,3,2,1,5,3,3"
dtnsim.node[12].app.start = "73,10,63,29,79,40,42,96,90,99,18,5,37,4,32,97,32,13,71,42,100,60,87,88,71,19,41,99,69,100,12,73,77,92,65,87,87,30,73,89,45,6,94,54,95,13,15,56,88,26,46,57,60,78,81,7,93,68,42,97,91,13,93,70,94,61,17,24,44,53,84,95,41,41,46,96,72,74,6,48,62,40,54,99,99,48,96,96,39,54,97,50,61,19,93,64,6,18,31,19"
dtnsim.node[12].app.destinationEid = "11,11,11,11,11,11,11,11,11,11,11,11,11,11,11,11,11,11,11,11,11,11,11,11,11,11,11,11,11,11,11,11,11,11,13,13,13,13,13,13,13,13,13,13,13,13,13,13,13,13,13,13,13,13,13,13,13,13,13,13,13,13,13,13,13,13,13,13,13,13,13,13,13,13,13,13,13,13,13,13,13,13,13,13,13,13,13,13,13,13,13,13,13,13,13,13,13,13,13,13"
dtnsim.node[12].app.size = "100,50,500,50,50,200,100,500,50,200,50,50,200,500,100,100,200,50,100,200,50,200,500,50,500,200,500,500,100,500,500,100,50,200,200,500,500,500,500,500,200,50,100,500,500,100,200,50,200,100,50,500,200,50,200,500,500,200,50,100,100,200,100,200,200,200,50,200,500,100,500,50,100,200,200,100,100,50,50,100,200,200,500,200,200,200,100,50,500,200,200,500,100,200,100,50,200,100,200,200"
# Node 13 random conversational traffic
dtnsim.node[13].app.enable = true
dtnsim.node[13].app.bundlesNumber = "1,1,2,1,2,1,5,5,3,2,4,1,1,1,5,3,1,4,4,5,2,3,2,3,4,5,4,4,1,2,1,2,4,3,5,3,1,1,5,1,2,2,5,2,1,1,5,3,2,2,2,1,5,2,4,5,4,5,4,4,5,1,4,5,4,3,5,5,4,4,1,1,2,1,3,3,3,5,2,3,5,4,4,3,3,3,2,5,2,2,5,3,1,4,5,5,1,4,3,4"
dtnsim.node[13].app.start = "68,95,93,52,11,64,19,97,31,68,91,77,46,99,23,97,23,54,96,50,45,97,80,53,46,60,100,100,98,48,63,99,54,68,20,72,7,27,35,21,92,56,94,46,51,60,94,64,52,45,8,70,74,7,36,1,45,47,14,73,88,45,94,22,49,14,38,15,20,96,18,28,75,96,4,29,26,18,2,99,16,11,30,63,10,93,88,28,84,17,30,94,87,94,46,59,82,50,43,12"
dtnsim.node[13].app.destinationEid = "12,12,12,12,12,12,12,12,12,12,12,12,12,12,12,12,12,12,12,12,12,12,12,12,12,12,12,12,12,12,12,12,12,12,12,12,12,12,12,12,14,14,14,14,14,14,14,14,14,14,14,14,14,14,14,14,14,14,14,14,14,14,14,14,14,14,14,14,14,14,14,14,14,14,14,14,14,14,14,14,14,14,14,14,14,14,14,14,14,14,14,14,14,14,14,14,14,14,14,14"
dtnsim.node[13].app.size = "50,200,500,100,100,500,500,200,100,50,500,200,500,200,500,100,500,200,500,200,200,200,50,50,500,100,50,200,50,200,100,100,500,500,200,50,500,500,100,200,200,50,200,500,500,200,100,200,500,100,200,50,200,500,100,100,500,200,50,200,100,200,50,100,100,200,500,200,100,500,500,50,100,200,500,200,200,500,100,200,500,500,200,200,50,200,200,200,200,500,100,50,500,50,100,100,500,50,500,50"
# Node 14 random conversational traffic
dtnsim.node[14].app.enable = true
dtnsim.node[14].app.bundlesNumber = "5,2,2,3,1,3,4,5,2,2,5,1,1,5,2,5,5,1,4,4,3,2,5,5,4,2,1,4,5,5,1,5,4,2,1,4,4,2,3,5,2,5,2,1,1,2,2,5,5,5,5,2,1,1,2,2,3,3,3,5,4,2,5,3,3,2,1,5,5,2,4,2,5,3,3,3,5,1,1,2,1,3,1,2,5,2,2,2,1,1,3,4,1,1,2,5,2,1,5,1"
dtnsim.node[14].app.start = "95,96,50,56,70,100,14,38,9,24,98,48,23,54,16,23,100,34,80,99,22,10,100,26,36,18,38,90,26,33,100,90,64,83,56,28,71,57,63,17,32,2,16,46,59,9,59,57,91,71,100,35,7,36,70,63,5,43,15,38,48,79,16,36,91,75,1,34,30,17,26,87,80,86,20,67,19,12,74,68,52,51,75,57,29,42,34,87,98,61,16,20,30,86,65,11,51,11,86,52"
dtnsim.node[14].app.destinationEid = "13,13,13,13,13,13,13,13,13,13,13,13,13,13,13,13,13,13,13,13,13,13,13,13,13,13,13,13,13,13,13,13,13,13,13,15,15,15,15,15,15,15,15,15,15,15,15,15,15,15,15,15,15,15,15,15,15,15,15,15,15,15,15,15,15,15,15,15,15,15,15,15,15,15,15,15,15,15,15,15,15,15,15,15,15,15,15,15,15,15,15,15,15,15,15,15,15,15,15,15"
dtnsim.node[14].app.size = "100,100,200,50,200,100,500,100,500,500,50,500,100,50,100,50,500,500,200,200,500,200,500,500,500,50,100,50,500,500,50,500,500,500,200,200,500,50,50,50,100,500,100,50,200,500,50,100,200,50,500,200,500,50,500,100,500,50,100,500,50,50,200,100,200,100,50,50,500,50,200,200,200,50,100,500,200,200,500,100,200,200,200,500,100,200,200,200,200,200,50,50,500,100,200,200,50,50,500,200"
# Node 15 random conversational traffic
dtnsim.node[15].app.enable = true
dtnsim.node[15].app.bundlesNumber = "1,4,3,5,2,5,1,3,2,4,3,2,3,5,4,3,1,3,3,4,4,5,1,2,4,1,2,1,2,4,5,2,4,2,3,2,2,3,1,4,1,4,2,1,5,4,2,1,5,5,5,4,2,2,1,1,5,1,1,5,1,2,3,1,5,4,5,4,2,3,5,5,3,5,5,1,2,2,3,4,1,5,2,2,3,2,2,1,2,4,4,5,3,2,3,3,2,2,4,4"
dtnsim.node[15].app.start = "29,72,61,70,26,55,15,67,98,100,44,16,40,75,66,20,45,85,87,96,83,56,76,63,33,37,100,21,91,12,19,84,81,100,55,67,81,35,9,21,59,46,31,19,31,78,21,80,28,34,36,22,26,3,22,19,53,67,53,5,21,53,27,70,69,57,12,21,11,77,15,95,10,49,7,74,1,47,22,37,59,52,2,6,65,32,92,26,59,58,90,31,19,23,47,96,90,62,97,45"
dtnsim.node[15].app.destinationEid = "14,14,14,14,14,14,14,14,14,14,14,14,14,14,14,14,14,14,14,14,14,14,14,14,14,14,14,14,14,14,14,16,16,16,16,16,16,16,16,16,16,16,16,16,16,16,16,16,16,16,16,16,16,16,16,16,16,16,16,16,16,16,16,16,16,16,16,16,16,16,16,16,16,16,16,16,16,16,16,16,16,16,16,16,16,16,16,16,16,16,16,16,16,16,16,16,16,16,16,16"
dtnsim.node[15].app.size = "50,50,100,500,100,500,200,500,500,50,200,500,50,50,500,200,100,200,50,100,200,200,50,50,500,100,100,200,500,500,100,200,100,50,100,500,50,50,50,100,100,500,500,200,50,50,200,200,500,100,100,500,200,500,100,100,100,50,100,100,200,50,500,100,200,500,100,100,50,500,500,50,500,50,100,50,50,200,200,50,500,200,50,50,200,500,500,100,100,200,500,100,500,50,200,200,500,100,100,200"
# Node 16 random conversational traffic
dtnsim.node[16].app.enable = true
dtnsim.node[16].app.bundlesNumber = "4,3,4,5,3,4,5,3,3,5,2,5,1,3,5,2,1,4,3,4,5,4,4,5,1,2,3,2,2,1,4,5,2,2,4,5,5,1,4,5,4,5,3,2,5,3,5,3,4,4,3,3,4,5,2,2,1,2,1,4,5,5,5,1,5,2,2,4,2,2,2,3,2,4,3,2,2,1,5,5,2,1,5,1,5,3,2,2,1,3,3,3,3,5,4,2,2,5,2,5"
dtnsim.node[16].app.start = "64,86,63,53,27,32,40,13,31,63,61,11,31,63,71,72,62,78,25,100,8,55,39,63,61,11,34,100,62,33,32,52,99,96,99,97,11,22,43,99,22,46,34,50,27,58,61,99,37,81,60,26,71,92,36,80,85,92,31,94,22,91,90,72,22,18,72,37,69,58,40,4,65,25,40,43,28,10,20,37,53,98,55,95,84,41,52,36,36,63,7,74,43,59,61,18,3,31,97,9"
dtnsim.node[16].app.destinationEid = "15,15,15,15,15,15,15,15,15,15,15,15,15,15,15,15,15,15,15,15,15,15,15,15,15,15,15,15,15,15,15,15,15,15,15,17,17,17,17,17,17,17,17,17,17,17,17,17,17,17,17,17,17,17,17,17,17,17,17,17,17,17,17,17,17,17,17,17,17,17,17,17,17,17,17,17,17,17,17,17,17,17,17,17,17,17,17,17,17,17,17,17,17,17,17,17,17,17,17,17"
dtnsim.node[16].app.size = "50,200,50,50,500,200,500,50,50,100,100,200,50,50,100,50,100,50,200,200,200,200,200,100,100,200,200,200,200,500,50,50,100,500,200,500,50,100,50,200,50,500,500,200,50,50,100,50,500,100,100,100,100,200,50,50,100,200,100,500,200,500,100,50,100,50,50,100,50,100,200,100,50,50,200,500,50,50,200,50,500,500,50,100,500,500,100,500,500,100,50,50,50,500,500,200,500,200,50,200"
# Node 17 random conversational traffic
dtnsim.node[17].app.enable = true
dtnsim.node[17].app.bundlesNumber = "1,1,3,3,2,2,5,1,5,5,2,5,4,5,5,1,3,5,1,3,1,5,5,4,5,1,3,1,5,3,4,4,3,4,2,2,2,2,5,1,1,1,2,1,3,2,3,2,3,3,4,1,5,4,3,4,5,3,3,5,2,5,2,1,4,1,4,2,1,3,1,1,2,3,3,4,2,4,3,4,2,2,5,4,1,3,3,5,5,4,4,1,1,3,2,5,3,4,4,1"
dtnsim.node[17].app.start = "98,46,100,32,53,36,64,68,100,44,83,66,35,79,44,98,39,99,96,26,78,65,47,68,44,47,19,28,39,62,100,57,100,89,56,43,43,68,77,52,61,5,100,14,9,84,9,63,64,5,58,94,63,41,27,33,94,32,43,87,44,70,44,85,84,92,89,73,18,4,8,3,6,14,26,89,96,44,24,89,21,35,75,66,11,43,14,64,29,18,88,35,54,24,59,50,20,71,81,16"
dtnsim.node[17].app.destinationEid = "16,16,16,16,16,16,16,16,16,16,16,16,16,16,16,16,16,16,16,16,16,16,16,16,16,16,16,16,16,16,16,16,16,16,16,16,16,16,16,16,16,16,16,16,18,18,18,18,18,18,18,18,18,18,18,18,18,18,18,18,18,18,18,18,18,18,18,18,18,18,18,18,18,18,18,18,18,18,18,18,18,18,18,18,18,18,18,18,18,18,18,18,18,18,18,18,18,18,18,18"
dtnsim.node[17].app.size = "100,500,200,100,500,200,200,500,100,500,500,200,100,100,50,50,100,100,200,100,100,50,50,200,200,50,500,50,50,100,100,50,100,50,50,500,200,100,200,500,200,100,100,200,500,500,200,200,50,100,50,100,100,50,100,500,500,100,50,100,200,200,200,100,50,500,500,100,50,500,100,200,50,200,100,100,500,500,500,200,50,50,500,200,50,500,500,100,100,500,100,200,200,50,50,200,50,100,100,200"
# Node 18 random conversational traffic
dtnsim.node[18].app.enable = true
dtnsim.node[18].app.bundlesNumber = "2,4,5,4,1,4,5,2,4,1,3,5,3,1,5,1,5,5,5,5,3,4,5,2,3,3,5,2,1,5,4,3,2,3,5,1,4,5,3,2,5,4,3,5,2,2,5,5,4,3,2,1,3,1,5,3,5,3,5,5,5,4,2,3,4,5,2,4,5,5,2,2,4,1,3,5,5,1,3,4,3,5,3,5,4,3,2,4,2,4,1,5,1,5,5,4,4,3,3,1"
dtnsim.node[18].app.start = "12,87,16,69,8,96,72,35,42,33,48,91,50,79,87,87,99,21,5,12,10,22,92,97,48,28,90,39,70,38,24,38,61,30,29,79,19,13,51,13,94,44,74,25,89,97,34,27,60,11,81,16,2,28,20,20,67,15,49,1,36,76,46,23,26,84,80,68,23,86,53,90,22,67,74,6,36,99,82,52,23,94,20,56,4,88,33,88,85,92,82,24,89,59,86,34,71,96,26,72"
dtnsim.node[18].app.destinationEid = "17,17,17,17,17,17,17,17,17,17,17,17,17,17,17,17,17,17,17,17,17,17,17,17,17,17,17,17,17,17,17,17,17,17,17,17,17,19,19,19,19,19,19,19,19,19,19,19,19,19,19,19,19,19,19,19,19,19,19,19,19,19,19,19,19,19,19,19,19,19,19,19,19,19,19,19,19,19,19,19,19,19,19,19,19,19,19,19,19,19,19,19,19,19,19,19,19,19,19,19"
dtnsim.node[18].app.size = "100,100,500,200,200,500,50,50,50,100,100,50,100,500,500,100,50,200,500,100,200,500,100,100,200,100,50,100,200,200,200,100,500,100,50,200,100,500,500,100,100,50,200,200,50,500,50,50,200,200,200,100,500,50,100,50,200,200,500,50,50,50,50,100,200,200,50,200,500,200,500,500,500,200,100,500,200,100,200,100,200,200,500,50,200,500,500,50,50,100,50,500,500,50,50,200,50,100,50,100"
# Node 19 random conversational traffic
dtnsim.node[19].app.enable = true
dtnsim.node[19].app.bundlesNumber = "1,4,3,1,3,5,5,3,2,4,2,2,2,1,2,3,2,2,3,3,4,3,1,2,3,4,3,1,3,3,3,2,5,1,4,2,2,3,1,3,1,5,3,4,3,2,5,3,3,2,3,1,5,4,3,4,5,4,2,1,3,2,5,1,5,5,5,5,5,5,4,3,2,5,2,5,3,3,4,4,4,5,2,2,5,5,5,4,3,5,4,4,1,4,1,1,2,4,2,2"
dtnsim.node[19].app.start = "22,46,83,30,97,98,36,18,23,5,31,24,27,74,22,59,2,46,82,53,28,87,29,96,60,80,9,100,84,24,25,89,37,94,92,96,85,28,60,88,99,32,87,36,26,66,77,18,14,27,51,32,1,48,75,6,9,16,15,43,80,72,3,46,30,31,67,59,32,27,24,54,44,94,5,8,96,42,5,23,99,95,30,46,84,48,75,48,87,66,30,24,35,67,44,57,60,38,68,80"
dtnsim.node[19].app.destinationEid = "18,18,18,18,18,18,18,18,18,18,18,18,18,18,18,18,18,18,18,18,18,18,18,18,18,18,18,18,18,18,18,18,18,18,18,18,18,18,18,18,18,18,20,20,20,20,20,20,20,20,20,20,20,20,20,20,20,20,20,20,20,20,20,20,20,20,20,20,20,20,20,20,20,20,20,20,20,20,20,20,20,20,20,20,20,20,20,20,20,20,20,20,20,20,20,20,20,20,20,20"
dtnsim.node[19].app.size = "100,200,200,100,200,200,50,500,200,500,50,500,100,100,50,200,100,500,50,200,50,200,100,500,50,500,500,500,100,500,100,500,50,50,100,50,500,50,50,500,500,50,100,500,100,100,500,200,100,50,500,500,50,500,200,200,200,500,200,500,50,500,200,50,50,100,200,100,500,100,100,500,100,50,50,100,200,50,200,200,500,200,500,500,200,500,50,500,500,100,500,100,50,500,100,200,200,50,500,50"
# Node 20 random conversational traffic
dtnsim.node[20].app.enable = true
dtnsim.node[20].app.bundlesNumber = "3,4,3,3,4,2,2,3,3,1,2,4,2,3,5,1,4,2,2,2,1,1,2,2,1,3,3,3,3,5,1,5,5,1,1,1,4,5,1,3,1,3,5,4,5,2,2,4,2,3,1,2,2,2,5,4,1,5,3,4,5,3,4,5,5,3,5,5,1,3,1,5,5,3,3,3,5,2,3,4,1,3,3,2,5,5,4,1,4,4,3,4,4,1,2,1,3,4,2,1"
dtnsim.node[20].app.start = "41,32,26,33,58,38,56,26,44,85,78,4,35,73,32,25,45,97,9,14,12,100,100,76,55,25,73,47,69,41,46,12,31,39,82,38,67,43,72,76,62,9,31,66,62,76,31,46,82,46,93,78,53,88,43,15,66,80,82,79,98,22,3,98,66,49,68,27,80,82,7,75,1,12,80,20,91,22,27,93,37,55,21,41,51,36,56,75,64,38,48,38,58,4,39,29,93,53,96,7"
dtnsim.node[20].app.destinationEid = "19,19,19,19,19,19,19,19,19,19,19,19,19,19,19,19,19,19,19,19,19,19,19,19,19,19,19,19,19,19,21,21,21,21,21,21,21,21,21,21,21,21,21,21,21,21,21,21,21,21,21,21,21,21,21,21,21,21,21,21,21,21,21,21,21,21,21,21,21,21,21,21,21,21,21,21,21,21,21,21,21,21,21,21,21,21,21,21,21,21,21,21,21,21,21,21,21,21,21,21"
dtnsim.node[20].app.size = "100,50,200,200,100,500,100,200,100,500,50,50,50,50,50,500,100,50,50,500,50,500,100,100,100,500,500,100,100,100,500,50,50,500,50,500,200,50,200,500,50,100,500,100,100,200,50,200,500,100,100,50,500,50,50,50,200,100,200,200,100,100,100,100,500,50,500,50,200,50,200,50,100,200,200,100,50,100,50,500,200,500,50,200,50,200,100,200,50,50,100,500,100,100,200,100,500,100,50,500"
# Node 21 random conversational traffic
dtnsim.node[21].app.enable = true
dtnsim.node[21].app.bundlesNumber = "1,1,1,3,1,3,1,5,5,5,5,3,2,2,5,2,3,1,2,4,1,2,5,3,5,3,2,1,5,2,5,4,2,2,1,5,5,3,3,5,5,3,1,1,2,3,3,1,5,2,2,3,2,5,5,1,2,3,4,2,3,4,2,4,4,2,5,3,3,5,3,2,4,5,4,1,1,3,4,4,1,3,3,5,4,2,2,3,3,5,4,1,2,4,2,1,5,5,5,2"
dtnsim.node[21].app.start = "20,37,49,90,42,80,79,85,34,47,96,85,94,23,87,89,88,11,99,77,34,90,2,17,90,28,31,63,30,49,46,85,57,47,31,59,100,11,25,84,70,66,23,80,26,79,86,78,56,92,65,30,83,60,65,54,74,83,17,13,61,42,70,30,76,31,67,80,100,63,38,52,78,9,99,41,57,50,95,52,83,28,96,43,28,46,47,57,68,72,86,26,52,46,95,6,82,9,88,84"
dtnsim.node[21].app.destinationEid = "20,20,20,20,20,20,20,20,20,20,20,20,20,20,20,20,20,20,20,20,20,20,20,20,20,20,20,20,20,20,20,20,20,20,20,20,20,20,22,22,22,22,22,22,22,22,22,22,22,22,22,22,22,22,22,22,22,22,22,22,22,22,22,22,22,22,22,22,22,22,22,22,22,22,22,22,22,22,22,22,22,22,22,22,22,22,22,22,22,22,22,22,22,22,22,22,22,22,22,22"
dtnsim.node[21].app.size = "100,500,50,200,50,50,500,200,50,100,200,500,200,200,500,500,100,100,100,200,50,200,50,100,50,100,500,500,100,50,200,200,50,100,50,100,500,500,200,500,50,100,500,500,500,50,50,100,500,500,500,200,500,50,50,200,50,500,50,50,50,100,50,50,100,200,200,500,50,500,200,50,100,50,500,100,100,500,500,500,500,200,200,50,100,500,100,50,200,500,50,100,100,50,200,100,200,50,100,200"
# Node 22 random conversational traffic
dtnsim.node[22].app.enable = true
dtnsim.node[22].app.bundlesNumber = "3,1,1,1,1,2,1,3,2,5,2,4,4,2,3,4,3,1,2,5,4,3,3,2,4,5,2,1,5,2,2,1,1,4,5,4,3,5,1,3,4,2,5,4,3,1,3,5,3,2,2,1,2,1,2,3,1,5,4,2,2,1,4,1,3,1,1,5,4,3,3,2,4,2,1,2,5,5,2,1,3,5,5,1,5,4,3,2,1,4,1,2,5,4,5,4,2,2,4,3"
dtnsim.node[22].app.start = "32,79,68,24,85,27,95,82,64,88,22,20,47,76,85,33,100,42,61,84,48,59,99,37,97,53,36,51,78,75,34,56,85,10,93,31,43,99,25,89,72,9,24,48,50,67,28,28,66,18,15,30,1,10,46,90,51,12,13,32,94,19,8,26,84,8,56,81,1,98,11,22,17,73,76,90,39,66,92,54,20,34,31,31,14,25,57,9,85,71,68,78,21,66,20,83,49,25,97,18"
dtnsim.node[22].app.destinationEid = "21,21,21,21,21,21,21,21,21,21,21,21,21,21,21,21,21,21,21,21,21,21,21,21,21,21,21,21,21,21,21,21,21,21,21,23,23,23,23,23,23,23,23,23,23,23,23,23,23,23,23,23,23,23,23,23,23,23,23,23,23,23,23,23,23,23,23,23,23,23,23,23,23,23,23,23,23,23,23,23,23,23,23,23,23,23,23,23,23,23,23,23,23,23,23,23,23,23,23,23"