[General]
network = src.dtnsim										
repeat = 1
allow-object-stealing-on-deletion = true

# Simulation end time
sim-time-limit = 84600s

# Nodes quantity (identifiers (EiDs) matches their index, EiD=0 is ignored)			
dtnsim.nodesNumber = 180
dtnsim.node[*].icon = "satellite"

# Nodes's failure rates
dtnsim.node[*].fault.enable = true
dtnsim.node[*].fault.meanTTF = 90s
dtnsim.node[*].fault.meanTTR = 10s

# Mobility
dtnsim.node[*].hasMobility = true
dtnsim.node[*].norad.satIndex = parentIndex()
dtnsim.node[*].norad.satName = "sat"
**.updateInterval = 20s
**.numOfSats = 180
**.satPerPlane = 15
**.altitude = 540
**.planes = 12
**.phaseOffset = 7

dtnsim.node[*].dtn.routing = "antop"
dtnsim.node[*].dtn.printRoutingDebug = true

# --- Random Traffic Configuration ---
# Node 1 random traffic
dtnsim.node[1].app.enable = true
dtnsim.node[1].app.bundlesNumber = "9,36,50,7,29,18,4,37,36,38,16,15,12,29,24,5,11,2,44,16,25,30,6,40,16,14,19,46,14,30,2,39,15,47,16,15,15,6,3,19,20,36,49,43,14,33,38,22,12,20,47,3,30,47,32,6,47,15,16,1,6,13,4,17,25,8,12,45,22,22,14,19,43,28,20,8,24,42,44,28,48,3,6,42,7,21,11,12,41,8,39,34,29,3,40,19,25,50,13,10"
dtnsim.node[1].app.start = "35,30,54,7,64,19,13,35,13,25,67,1,75,57,39,86,84,37,21,68,68,53,61,55,18,1,43,79,44,49,10,48,43,18,63,77,87,49,32,65,70,95,8,38,68,73,15,63,21,71,41,93,17,66,13,32,97,9,86,65,62,85,53,8,26,17,60,1,40,89,36,33,86,95,71,13,84,51,30,60,1,27,24,45,97,31,82,33,82,89,74,59,2,57,74,26,83,90,5,7"
dtnsim.node[1].app.destinationEid = "104,111,179,136,32,119,32,62,176,100,46,13,98,66,69,8,172,151,18,121,2,175,2,138,20,61,155,160,126,47,88,43,47,66,76,136,149,128,65,89,109,170,64,53,13,39,19,35,88,127,46,166,105,21,34,139,58,5,141,83,26,58,59,57,159,103,142,122,170,79,128,149,76,39,122,58,6,44,177,51,87,122,168,89,9,84,94,160,92,150,164,56,144,53,173,33,18,64,143,77"
dtnsim.node[1].app.size = "100,50,200,50,500,50,200,100,200,50,500,500,500,50,200,200,500,200,500,200,500,100,50,100,50,100,100,500,500,100,200,500,200,200,50,200,200,200,50,500,50,50,500,200,100,50,200,50,200,500,100,100,200,100,100,500,100,200,50,50,200,500,50,50,100,50,500,500,100,50,50,200,50,50,200,500,100,100,100,50,50,500,50,500,200,50,500,500,100,100,500,200,50,200,200,200,200,200,500,200"
# Node 2 random traffic
dtnsim.node[2].app.enable = true
dtnsim.node[2].app.bundlesNumber = "3,1,43,25,42,14,10,30,37,24,43,19,4,9,13,17,50,33,43,7,18,27,19,11,16,37,46,37,17,10,12,28,35,22,14,30,11,8,44,2,20,30,21,4,46,26,50,33,3,33,2,6,26,43,14,14,3,48,15,14,17,32,2,3,43,46,16,41,3,47,13,1,28,26,43,12,21,40,32,17,25,20,45,11,46,49,27,43,40,42,44,16,22,26,31,31,6,27,15,50"
dtnsim.node[2].app.start = "37,52,48,14,71,28,29,81,64,41,44,40,30,19,88,44,24,80,76,18,87,18,87,56,42,1,82,42,96,13,90,67,92,32,51,8,79,66,65,12,13,92,60,37,35,2,45,43,79,53,18,19,36,27,16,54,38,51,97,56,54,2,38,82,30,42,33,11,68,75,67,7,17,23,30,100,91,55,50,56,77,43,55,43,22,76,75,34,88,60,54,2,86,90,78,20,13,33,34,13"
dtnsim.node[2].app.destinationEid = "76,130,97,68,135,3,129,45,125,76,174,148,56,126,137,105,127,87,162,171,27,85,80,163,107,26,148,162,53,42,152,144,149,110,103,109,42,96,33,105,53,175,109,15,32,166,131,54,43,148,106,136,73,169,48,146,39,104,156,84,1,145,163,110,3,68,41,45,70,16,9,105,176,75,169,5,54,61,96,36,98,18,9,103,79,176,51,139,57,94,86,128,1,90,66,96,159,180,155,16"
dtnsim.node[2].app.size = "50,200,500,500,50,100,500,100,50,100,500,50,50,500,200,200,500,200,500,50,200,200,200,100,500,500,500,50,100,200,500,500,50,200,200,100,100,50,50,500,50,200,100,200,50,200,500,500,200,200,50,100,50,500,200,100,200,50,50,100,200,500,100,100,500,50,100,100,500,200,50,100,100,50,200,50,500,200,200,200,50,500,500,200,200,100,100,100,200,500,50,200,200,500,50,500,500,200,100,100"
# Node 3 random traffic
dtnsim.node[3].app.enable = true
dtnsim.node[3].app.bundlesNumber = "36,44,36,39,24,13,37,15,29,33,24,38,19,41,30,34,18,1,3,40,20,11,39,3,33,39,48,49,42,15,46,12,48,33,1,20,15,1,6,17,25,20,32,40,35,50,27,8,41,15,18,27,26,40,47,30,26,11,34,37,3,1,3,13,11,42,47,48,8,5,38,13,29,42,13,28,20,41,22,41,29,33,35,7,12,30,10,26,19,31,11,39,50,10,13,49,49,49,1,45"
dtnsim.node[3].app.start = "84,90,70,56,76,92,93,47,11,48,64,61,84,6,51,13,62,4,95,44,31,40,18,99,91,74,37,24,29,43,54,19,76,67,6,75,72,50,71,44,20,21,10,41,28,89,93,62,61,79,48,46,76,16,17,39,5,14,66,40,67,69,48,34,14,28,13,81,62,68,92,67,14,91,10,2,15,90,66,21,76,42,37,76,86,13,55,82,48,67,84,10,92,10,61,25,65,24,87,93"
dtnsim.node[3].app.destinationEid = "161,47,128,54,172,105,49,148,135,135,111,40,114,54,36,158,151,29,158,72,102,175,26,92,164,174,88,89,40,157,137,43,91,143,138,177,63,118,88,138,95,132,72,172,19,10,102,56,49,146,13,144,140,84,93,69,151,70,130,17,58,116,116,72,98,60,50,114,140,130,143,109,160,167,40,177,35,60,1,176,116,50,5,42,19,2,55,102,31,161,178,114,76,175,137,160,111,13,68,148"
dtnsim.node[3].app.size = "50,200,500,500,200,200,200,500,100,100,200,50,500,50,500,500,100,50,100,200,200,50,100,50,500,500,200,100,50,500,50,100,200,200,200,200,100,50,100,500,100,100,200,50,500,100,200,200,500,200,100,200,50,100,100,200,500,50,100,500,500,100,100,100,100,200,500,200,200,500,500,200,50,100,500,100,200,100,50,100,100,50,200,200,500,100,50,500,100,50,200,100,50,500,500,100,50,500,200,500"
# Node 4 random traffic
dtnsim.node[4].app.enable = true
dtnsim.node[4].app.bundlesNumber = "34,11,22,2,6,16,46,23,1,40,33,13,9,45,36,37,2,38,18,11,26,4,37,24,33,32,7,16,25,31,41,17,13,39,49,33,16,45,38,34,39,3,18,30,12,11,5,31,28,4,10,49,15,48,35,42,43,14,17,25,18,46,32,40,49,14,48,22,48,17,5,46,27,31,17,17,50,47,42,11,11,50,28,45,23,8,33,47,22,33,3,22,3,13,5,19,30,13,17,12"
dtnsim.node[4].app.start = "38,47,92,56,18,59,47,46,4,97,19,46,67,91,60,32,53,100,53,29,15,16,8,47,9,93,71,34,6,47,50,31,95,2,73,80,26,15,60,66,52,83,88,86,38,77,80,99,20,2,99,85,56,50,79,11,92,27,7,24,70,49,91,56,65,93,16,13,5,32,83,76,25,9,30,93,99,4,92,35,83,34,10,77,17,96,48,5,20,75,51,22,79,5,10,65,40,94,48,2"
dtnsim.node[4].app.destinationEid = "82,144,17,58,41,107,157,176,7,173,179,89,164,23,109,165,40,131,135,15,46,178,139,172,119,5,158,129,106,130,176,8,84,175,65,154,77,48,98,26,85,140,52,168,157,122,109,131,156,175,47,81,119,126,99,83,159,177,66,17,75,17,96,162,28,44,26,123,135,111,93,2,159,9,95,72,126,179,36,54,144,121,7,120,27,42,125,164,112,79,177,180,131,146,103,56,54,149,67,164"
dtnsim.node[4].app.size = "100,500,200,100,200,100,500,500,100,500,200,50,50,100,100,200,200,200,100,100,50,100,500,100,50,500,200,200,50,500,200,50,500,50,50,100,200,50,200,500,50,200,100,200,500,500,50,100,50,100,50,50,50,500,50,200,100,200,100,100,50,100,200,200,50,50,500,200,100,100,100,100,200,100,100,200,50,100,200,50,50,100,50,200,500,500,50,100,500,500,500,50,500,500,50,50,50,100,500,500"
# Node 5 random traffic
dtnsim.node[5].app.enable = true
dtnsim.node[5].app.bundlesNumber = "22,17,33,43,6,3,6,24,50,48,2,13,22,43,8,17,13,7,40,27,7,49,41,19,44,18,43,50,41,30,31,50,33,46,41,3,50,19,1,50,3,40,37,14,15,19,33,17,13,41,39,2,21,50,14,6,39,30,47,33,37,34,44,24,47,41,44,8,3,13,30,14,5,29,26,1,48,20,38,44,10,20,22,7,33,9,11,36,13,21,24,49,4,48,43,46,42,50,30,4"
dtnsim.node[5].app.start = "81,36,53,97,73,6,39,7,15,65,17,24,93,15,77,82,49,61,80,92,34,43,7,36,9,50,10,12,26,41,39,50,46,92,14,37,94,33,65,90,23,73,94,81,13,27,99,60,40,26,73,7,38,28,69,20,72,22,3,83,94,23,21,73,64,98,56,90,100,24,5,62,35,70,94,6,30,24,58,21,19,43,80,51,19,93,36,97,55,90,9,8,93,29,95,72,66,31,30,42"
dtnsim.node[5].app.destinationEid = "80,76,113,98,122,138,165,21,56,2,66,1,62,97,30,11,43,36,105,89,32,123,65,42,117,70,108,153,113,18,30,94,119,105,117,3,19,28,180,74,146,72,55,16,73,62,65,21,24,89,154,89,25,67,16,92,140,45,109,124,149,49,75,98,99,12,134,10,134,52,137,133,39,135,26,60,23,151,155,84,108,61,93,98,119,145,17,141,32,3,135,93,180,68,9,113,133,102,47,76"
dtnsim.node[5].app.size = "200,50,500,50,50,500,50,100,100,100,500,200,100,500,100,50,100,200,100,500,50,50,100,100,100,50,200,200,100,100,100,500,500,50,50,50,200,200,100,100,50,500,50,200,500,500,200,100,100,100,500,50,100,50,100,200,50,200,100,50,500,500,200,50,100,500,100,500,50,50,100,200,100,50,500,200,200,100,50,500,500,200,500,200,200,100,200,500,500,50,200,100,50,100,200,200,50,100,50,100"
# Node 6 random traffic
dtnsim.node[6].app.enable = true
dtnsim.node[6].app.bundlesNumber = "7,15,24,28,37,14,34,48,25,1,22,25,9,32,14,31,50,17,5,27,47,27,36,27,7,25,31,6,12,36,25,47,24,10,47,7,36,36,14,48,39,47,18,2,9,31,3,11,28,28,16,40,45,36,18,1,41,19,3,26,40,50,3,3,36,1,10,35,10,29,23,44,46,12,13,19,26,3,15,50,7,23,7,2,25,7,40,7,6,18,31,3,20,49,24,26,34,10,49,18"
dtnsim.node[6].app.start = "6,52,60,62,11,62,56,17,39,94,77,23,15,49,86,2,83,53,17,28,96,15,94,14,88,84,22,19,71,1,19,63,95,22,24,61,100,67,37,75,54,69,38,63,65,45,9,17,7,10,67,14,12,62,1,12,90,79,71,36,49,83,90,50,50,71,75,6,23,4,26,59,89,14,34,34,79,46,59,45,23,69,29,34,50,58,53,65,14,83,3,71,42,13,16,31,6,8,5,85"
dtnsim.node[6].app.destinationEid = "105,37,54,154,21,62,146,147,76,108,55,85,138,13,35,170,31,68,154,61,32,83,21,180,132,130,105,37,159,135,155,33,143,130,166,109,47,177,148,175,30,60,80,142,52,153,108,43,162,38,162,142,126,178,180,109,165,18,31,45,140,82,118,179,81,155,152,46,178,104,58,144,69,122,64,152,179,44,74,74,14,97,138,93,135,108,138,112,46,78,18,96,100,44,122,178,13,117,61,54"
dtnsim.node[6].app.size = "100,500,100,100,500,500,50,50,100,50,500,500,50,50,50,100,500,500,200,50,100,500,200,200,200,100,200,200,500,100,200,100,500,200,100,500,500,100,100,100,50,50,500,100,100,100,200,100,500,100,100,500,100,100,200,500,100,500,500,200,50,200,50,100,200,500,50,100,500,200,200,200,100,100,50,100,200,100,200,200,100,500,50,100,50,50,100,100,500,100,500,50,50,200,100,200,100,50,100,500"
# Node 7 random traffic
dtnsim.node[7].app.enable = true
dtnsim.node[7].app.bundlesNumber = "41,43,23,49,9,5,49,41,20,26,43,9,11,29,10,5,26,30,31,32,15,4,46,17,11,40,27,10,43,18,20,9,40,3,47,27,37,49,14,39,44,28,40,11,34,29,43,32,26,4,18,26,48,41,17,31,26,31,40,47,10,40,40,10,49,4,44,3,36,28,49,19,18,33,23,44,13,39,19,22,25,50,34,10,1,7,14,49,29,13,5,38,3,48,45,10,11,20,1,12"
dtnsim.node[7].app.start = "51,92,46,9,95,52,99,64,20,67,46,33,14,45,34,66,97,59,99,40,63,84,46,95,48,86,23,28,20,63,13,20,35,26,68,62,39,27,21,29,47,83,2,69,30,58,21,36,4,62,83,5,67,13,75,24,32,35,13,27,63,6,95,19,65,33,39,8,82,14,92,89,42,31,68,79,23,43,62,87,6,93,15,49,41,9,66,2,15,61,41,72,94,70,91,32,55,72,23,99"
dtnsim.node[7].app.destinationEid = "102,120,118,58,165,45,92,137,28,161,147,38,18,155,42,138,53,152,104,93,91,40,62,10,3,56,44,57,26,171,9,68,56,72,128,97,166,174,83,176,112,125,133,99,48,75,52,70,3,135,119,165,41,135,118,147,125,134,18,58,103,6,84,158,141,109,139,177,162,65,158,30,100,111,121,85,133,64,143,112,1,109,81,144,96,95,35,10,170,59,156,42,163,136,12,166,32,93,145,41"
dtnsim.node[7].app.size = "50,500,200,100,100,50,50,500,500,200,50,100,50,50,500,200,200,50,50,500,200,500,100,500,50,200,500,500,100,100,500,200,50,200,500,100,50,50,200,100,50,200,100,100,50,50,500,200,500,200,50,500,100,200,100,200,50,200,100,100,50,50,200,500,500,500,500,200,500,50,200,500,50,500,50,200,200,500,200,50,200,500,100,500,200,50,50,200,500,500,500,200,200,500,50,100,500,500,50,100"
# Node 8 random traffic
dtnsim.node[8].app.enable = true
dtnsim.node[8].app.bundlesNumber = "9,11,47,5,39,50,20,21,45,35,23,35,6,34,40,20,44,33,4,25,46,26,43,39,20,19,36,11,15,13,6,30,33,2,40,9,42,34,41,48,4,37,19,49,23,10,4,19,33,22,3,48,20,48,16,4,19,11,44,18,32,21,11,7,17,31,27,19,47,28,36,40,5,14,27,18,41,15,22,31,24,27,27,49,24,6,3,13,43,21,10,49,44,42,14,29,47,25,44,25"
dtnsim.node[8].app.start = "9,50,12,14,37,67,18,22,54,57,65,4,71,85,90,91,47,25,65,80,48,24,94,28,82,73,5,78,78,58,39,29,43,53,31,72,19,72,54,76,65,1,82,15,71,21,9,13,8,3,52,21,47,92,78,69,77,99,80,34,72,63,46,50,3,44,74,36,88,41,16,15,79,1,2,85,77,92,84,9,72,64,26,50,73,43,100,63,50,68,84,3,28,3,39,79,76,58,46,25"
dtnsim.node[8].app.destinationEid = "106,6,127,15,93,60,93,21,17,92,110,12,178,49,119,150,142,112,50,176,142,47,88,170,176,84,147,3,12,24,175,169,29,110,176,97,27,114,102,106,99,14,83,59,70,49,38,116,164,87,56,2,94,133,111,36,141,121,107,32,1,145,83,102,63,157,160,129,70,165,18,118,80,1,12,173,25,150,134,157,42,120,164,95,48,160,150,34,81,109,62,44,5,69,100,175,10,138,81,92"
dtnsim.node[8].app.size = "200,500,50,500,100,50,500,50,200,200,500,100,100,200,50,50,500,100,200,100,50,500,100,500,200,50,500,200,100,500,50,50,50,50,50,100,200,100,200,200,500,500,100,100,100,50,500,50,100,100,500,50,100,500,200,50,50,50,200,500,500,200,100,100,100,50,200,500,50,100,500,200,50,50,100,500,200,50,200,100,200,500,200,100,100,100,500,100,500,100,200,50,50,200,50,100,200,200,500,500"
# Node 9 random traffic
dtnsim.node[9].app.enable = true
dtnsim.node[9].app.bundlesNumber = "29,50,42,26,23,9,46,25,26,21,21,43,34,46,34,27,27,11,5,8,41,10,16,46,41,16,10,17,49,5,29,11,14,5,6,49,30,13,21,28,48,45,15,27,17,31,15,48,8,33,46,17,14,29,32,26,10,19,8,37,44,18,20,7,37,19,44,14,34,47,50,20,25,20,48,37,40,1,9,44,13,20,19,25,9,4,9,7,33,41,43,36,35,34,22,50,21,27,16,24"
dtnsim.node[9].app.start = "3,48,32,6,34,86,43,84,37,35,80,41,63,84,50,83,7,48,3,81,84,14,86,64,70,91,82,89,64,71,98,83,71,6,20,25,28,46,4,35,63,34,10,23,1,65,86,66,58,53,53,84,80,35,29,87,98,41,93,48,79,81,33,45,58,4,52,47,52,70,79,76,21,61,75,9,42,16,49,96,16,37,40,70,58,87,52,89,13,4,64,18,51,28,38,29,19,50,64,98"
dtnsim.node[9].app.destinationEid = "168,18,16,24,55,34,96,41,107,106,90,69,64,73,150,36,72,90,100,4,175,105,161,20,48,102,117,180,21,93,15,75,118,79,111,82,97,49,169,47,110,93,30,50,96,1,174,16,84,127,81,121,77,63,41,82,96,100,16,77,16,42,110,69,22,105,43,120,30,82,15,21,127,1,2,107,162,126,85,98,49,87,118,115,154,50,166,119,33,60,149,85,158,13,68,8,132,151,74,31"
dtnsim.node[9].app.size = "200,200,200,100,200,500,100,50,200,100,500,100,100,200,100,100,50,50,50,50,500,100,200,200,50,100,500,50,50,500,100,50,500,100,500,100,100,500,100,200,500,200,100,200,50,100,50,50,50,100,100,200,50,50,500,200,100,500,500,200,50,50,50,200,100,200,100,100,50,200,500,50,50,100,100,200,500,500,100,200,50,50,200,100,100,500,200,50,500,200,50,50,200,500,100,200,500,100,100,50"
# Node 10 random traffic
dtnsim.node[10].app.enable = true
dtnsim.node[10].app.bundlesNumber = "43,18,25,4,32,1,1,41,48,27,50,30,23,17,19,28,4,22,48,41,3,37,27,27,37,13,10,10,32,25,27,43,9,12,24,5,42,2,5,20,11,7,42,7,2,6,24,9,8,49,29,47,46,38,31,23,32,17,4,41,15,37,7,45,13,21,3,44,2,8,25,47,7,18,50,23,28,49,5,2,20,37,49,13,21,18,6,16,5,45,22,22,6,7,36,1,42,47,38,35"
dtnsim.node[10].app.start = "31,96,77,41,31,75,87,51,61,94,3,5,61,34,64,39,87,45,96,81,78,94,45,7,60,24,22,64,36,100,79,16,68,62,30,19,3,85,15,1,95,30,36,44,32,53,1,20,3,38,38,37,21,38,55,23,94,13,20,62,30,43,81,56,16,63,6,3,42,9,48,97,18,18,60,63,46,7,93,19,65,57,99,95,6,32,3,15,51,79,69,56,58,53,46,38,28,85,34,30"
dtnsim.node[10].app.destinationEid = "163,100,102,141,137,128,169,60,30,95,116,100,89,170,156,39,88,70,104,46,58,169,59,117,172,99,141,15,16,156,87,73,26,168,174,169,167,67,98,133,129,81,141,64,137,164,142,177,157,168,142,7,89,138,146,169,75,26,34,120,93,54,125,116,129,15,53,25,71,39,62,13,155,117,18,68,141,2,18,80,83,119,67,128,176,157,94,158,49,64,106,128,112,28,95,42,124,123,25,75"
dtnsim.node[10].app.size = "500,50,100,100,100,200,100,500,500,200,50,200,50,100,200,200,500,200,50,500,200,50,200,500,50,200,500,50,500,200,200,50,50,100,100,500,200,50,200,200,500,100,50,100,500,500,500,100,200,200,200,200,50,50,500,100,200,50,100,100,500,500,500,200,50,500,50,50,500,500,100,500,500,500,50,200,500,200,50,200,500,500,50,500,200,50,500,500,200,200,500,50,500,100,100,500,50,200,100,100"
# Node 11 random traffic
dtnsim.node[11].app.enable = true
dtnsim.node[11].app.bundlesNumber = "50,6,8,1,33,29,21,36,48,20,17,33,47,6,8,3,29,25,31,26,37,35,10,30,29,23,23,31,2,35,50,17,30,41,34,41,41,44,3,27,35,8,7,41,30,9,35,45,9,50,27,27,45,22,6,24,5,33,42,1,2,5,19,33,22,46,19,29,19,26,15,22,15,46,40,21,36,15,10,9,11,35,16,43,21,31,11,49,34,36,31,48,49,49,14,36,9,2,23,31"
dtnsim.node[11].app.start = "23,72,51,1,28,93,45,77,36,84,70,35,33,77,84,24,36,54,40,67,28,18,90,42,62,34,21,78,21,34,46,31,6,47,94,25,6,58,21,7,18,80,10,49,11,6,94,96,59,37,3,77,39,7,58,51,76,40,53,4,25,20,53,100,77,77,79,4,49,60,15,57,46,72,62,46,91,50,59,72,70,76,46,67,70,5,81,35,30,68,51,64,62,25,29,47,78,62,22,3"
dtnsim.node[11].app.destinationEid = "47,51,148,139,143,65,94,58,136,132,130,14,178,77,6,63,86,9,64,82,90,49,78,61,121,161,133,177,66,153,39,80,104,50,100,71,61,178,5,15,4,167,92,88,118,25,96,15,48,128,89,20,114,14,71,112,32,22,136,70,166,162,43,177,65,104,135,41,6,177,7,134,59,154,100,71,130,127,82,73,129,109,4,134,106,140,63,129,83,18,93,87,134,120,164,151,91,4,116,100"
dtnsim.node[11].app.size = "500,100,500,100,100,100,500,500,200,100,100,200,500,100,200,500,200,500,50,50,50,500,500,500,50,200,200,500,200,100,500,200,500,50,200,100,200,100,500,200,50,50,100,100,500,200,100,500,500,100,500,50,50,100,200,200,100,500,100,100,500,500,500,500,100,200,100,100,500,50,50,200,50,50,500,100,500,500,100,200,500,500,50,100,200,500,50,200,200,50,50,500,200,50,500,200,100,200,100,50"
# Node 12 random traffic
dtnsim.node[12].app.enable = true
dtnsim.node[12].app.bundlesNumber = "26,35,17,3,22,45,29,34,34,30,15,40,23,46,2,33,26,17,27,16,20,17,11,8,16,43,23,48,20,29,30,9,45,6,44,10,9,28,14,28,16,2,44,11,29,42,13,38,47,2,39,15,24,49,4,18,41,26,32,27,42,15,37,42,15,26,14,44,19,28,9,12,12,6,26,48,3,44,5,10,31,43,27,7,16,31,34,9,37,7,37,14,33,47,46,9,34,44,33,35"
dtnsim.node[12].app.start = "30,100,46,23,64,42,10,65,77,25,6,74,21,29,10,26,44,83,14,87,89,5,40,20,52,81,92,100,79,45,1,70,9,73,87,47,97,75,100,79,10,61,63,38,53,28,42,20,57,22,65,41,31,24,81,66,95,100,28,94,8,48,53,17,91,57,57,27,36,62,12,41,89,81,72,97,4,84,3,83,75,87,78,28,83,49,92,74,80,47,12,5,31,41,51,67,2,86,55,71"
dtnsim.node[12].app.destinationEid = "170,167,39,125,158,3,14,167,106,114,132,39,115,103,11,161,24,133,24,25,63,85,60,104,73,36,92,122,150,169,99,139,100,3,136,10,104,154,82,158,24,21,13,75,27,116,80,105,60,168,99,152,91,111,133,134,82,126,38,64,37,38,62,177,61,1,34,42,96,69,84,95,110,132,31,78,129,71,18,51,123,90,83,122,125,21,58,7,156,143,124,92,104,79,94,15,98,92,67,77"
dtnsim.node[12].app.size = "100,500,100,200,100,50,500,100,50,100,200,500,100,500,100,50,200,50,50,500,100,500,200,50,100,100,200,500,200,200,200,50,200,50,200,100,100,500,500,200,500,50,200,200,50,50,500,500,200,500,500,500,50,500,50,200,200,200,200,100,100,100,100,200,200,100,100,200,500,200,500,200,50,500,500,200,50,100,100,100,100,100,500,50,200,50,100,100,500,50,100,200,50,500,50,50,50,200,100,100"
# Node 13 random traffic
dtnsim.node[13].app.enable = true
dtnsim.node[13].app.bundlesNumber = "7,33,12,8,47,11,20,24,2,49,37,12,6,14,27,3,42,19,27,20,32,35,39,19,9,41,31,47,44,24,6,43,35,31,37,50,32,16,19,50,43,1,10,45,25,40,50,35,18,29,36,44,13,25,19,14,13,45,12,28,4,38,30,17,16,17,40,43,50,41,48,50,4,34,47,34,7,23,29,45,24,26,45,7,9,8,11,36,31,14,21,26,43,45,25,15,5,28,32,15"
dtnsim.node[13].app.start = "77,97,72,88,20,2,9,53,11,56,45,66,44,16,50,56,19,83,14,28,51,40,76,54,31,6,32,91,92,58,89,45,48,63,76,73,21,49,27,92,62,75,54,6,51,60,3,77,91,11,18,61,99,13,42,13,34,47,39,96,68,68,85,97,69,90,29,68,15,41,11,56,14,16,91,62,90,75,34,42,38,6,58,88,90,98,49,43,94,95,56,13,58,49,2,81,20,54,18,65"
dtnsim.node[13].app.destinationEid = "49,47,153,80,93,4,37,170,14,49,168,159,18,30,129,179,31,20,177,28,63,72,117,81,150,128,127,123,19,55,68,148,53,10,73,85,66,87,173,100,170,163,119,114,98,79,114,83,35,144,73,150,176,139,32,147,64,31,160,53,11,22,95,138,151,123,175,66,16,46,49,116,105,67,167,2,47,153,17,93,103,173,49,116,9,34,176,125,44,44,22,94,133,180,101,32,20,74,86,167"
dtnsim.node[13].app.size = "500,100,200,100,500,200,500,50,100,50,50,200,50,200,100,200,50,500,50,500,200,100,100,100,500,200,200,200,50,200,500,100,50,200,50,500,100,50,200,50,100,100,50,50,500,500,200,100,200,200,500,500,200,200,100,100,200,200,50,500,50,200,100,50,50,100,100,50,50,50,500,100,200,500,500,200,50,200,100,100,50,50,100,200,200,50,500,200,50,100,100,50,100,100,200,200,200,500,200,500"
# Node 14 random traffic
dtnsim.node[14].app.enable = true
dtnsim.node[14].app.bundlesNumber = "3,2,2,48,49,37,38,18,30,12,16,34,32,1,18,8,40,14,22,26,12,15,25,9,16,46,21,49,25,40,35,14,2,42,21,11,25,50,31,41,38,39,50,26,2,30,21,34,48,4,29,13,37,13,8,49,6,48,30,40,27,12,16,44,2,26,36,33,30,46,6,42,9,10,34,18,14,23,34,35,3,33,13,40,29,11,47,40,11,14,31,1,25,25,48,33,22,49,45,40"
dtnsim.node[14].app.start = "18,81,80,15,76,70,71,18,56,46,88,53,7,3,88,28,30,15,6,50,72,5,88,96,38,81,12,89,88,51,8,20,43,20,59,82,82,84,56,99,11,61,87,16,27,43,89,30,17,40,47,61,81,52,60,88,17,95,22,81,78,33,28,94,67,31,88,85,73,5,66,66,76,50,93,38,30,21,58,50,98,17,42,55,55,69,15,59,51,95,7,23,37,66,32,41,48,21,41,4"
dtnsim.node[14].app.destinationEid = "98,68,55,162,124,140,7,66,66,174,93,125,82,72,179,7,102,66,140,127,69,28,5,45,78,106,51,30,39,153,19,110,19,136,64,84,147,78,76,63,80,119,98,125,11,171,167,84,80,73,127,104,99,65,47,119,54,94,83,105,103,55,11,157,92,53,94,150,146,134,151,175,151,114,88,4,143,174,74,34,104,78,7,24,118,105,17,12,158,18,148,36,37,17,167,44,180,126,95,48"
dtnsim.node[14].app.size = "200,200,200,200,50,50,200,100,50,500,200,200,50,50,200,500,50,500,50,50,100,200,500,500,200,500,100,50,50,100,200,500,500,200,100,50,50,500,500,50,200,200,200,100,100,500,100,200,500,500,100,50,500,50,200,200,500,100,50,100,50,500,100,50,200,200,500,500,50,100,200,500,500,200,100,50,500,200,200,500,200,100,50,500,50,50,50,200,500,200,500,200,500,500,50,100,50,500,200,100"
# Node 15 random traffic
dtnsim.node[15].app.enable = true
dtnsim.node[15].app.bundlesNumber = "47,28,33,22,33,28,30,37,32,25,47,40,28,47,43,39,24,21,38,9,2,5,49,10,24,46,1,33,47,45,26,27,1,47,12,13,3,33,41,44,18,7,11,20,26,38,34,14,48,11,12,24,24,11,35,20,32,30,4,45,41,7,15,33,31,22,14,49,13,43,22,45,46,19,50,34,46,16,23,25,17,33,17,10,24,33,43,43,3,27,30,31,21,24,24,44,4,21,31,15"
dtnsim.node[15].app.start = "32,20,8,74,88,91,84,48,17,81,15,66,75,53,16,25,11,62,97,52,34,89,59,90,74,5,47,85,7,85,71,86,66,58,24,5,12,65,64,28,13,47,71,10,2,100,69,52,89,23,100,89,96,100,90,2,9,91,57,59,81,47,69,88,31,36,78,66,35,10,57,68,47,20,40,12,37,2,71,87,91,91,13,68,18,75,80,31,13,46,16,41,13,84,6,43,51,34,89,23"
dtnsim.node[15].app.destinationEid = "53,169,95,118,62,71,75,49,88,85,127,53,80,149,116,7,103,80,167,155,18,52,65,140,22,6,151,66,169,79,95,21,11,20,160,63,167,108,87,18,94,20,1,65,125,7,109,74,134,93,99,99,33,141,109,144,7,9,85,66,2,77,110,66,132,65,125,153,151,125,58,170,139,61,132,157,159,112,94,100,151,151,70,118,1,100,129,75,126,87,62,17,67,18,50,128,136,74,160,173"
dtnsim.node[15].app.size = "200,200,50,200,100,200,200,200,200,100,200,500,500,50,500,200,500,500,50,100,50,500,500,100,200,100,200,100,500,500,50,500,50,50,50,500,50,200,500,50,50,200,50,100,50,500,500,100,200,200,100,500,200,200,500,100,200,200,100,100,100,500,500,500,500,500,50,500,100,100,500,100,200,200,100,500,100,200,500,500,50,100,100,100,100,500,500,100,50,50,200,100,100,500,100,50,200,100,100,50"
# Node 16 random traffic
dtnsim.node[16].app.enable = true
dtnsim.node[16].app.bundlesNumber = "8,8,3,23,5,1,6,45,29,31,4,6,40,25,29,12,14,22,23,41,23,44,4,27,2,33,10,7,39,48,10,7,4,30,19,29,9,11,6,33,37,16,34,10,50,36,44,8,47,35,39,19,17,44,21,4,31,31,18,37,18,49,15,3,28,39,12,44,9,39,8,40,13,2,13,3,39,39,9,20,39,48,8,31,31,19,4,15,50,17,8,43,30,8,7,26,20,18,33,30"
dtnsim.node[16].app.start = "92,90,23,58,31,62,42,38,91,59,39,66,13,47,17,9,7,51,30,31,41,100,79,34,44,36,51,1,74,53,7,89,12,65,18,26,83,63,9,58,51,59,2,84,43,47,22,25,69,93,81,48,53,14,49,68,72,89,70,92,10,6,24,14,51,87,59,25,69,59,89,90,44,3,64,59,5,90,1,92,80,75,81,74,43,81,35,94,77,41,12,44,81,39,94,66,5,81,74,29"
dtnsim.node[16].app.destinationEid = "120,58,101,178,125,152,54,106,170,180,35,104,161,80,161,85,9,151,172,42,128,111,59,87,114,28,124,176,126,148,164,140,142,173,118,106,82,49,64,81,115,58,18,135,175,97,80,100,56,130,25,74,67,51,65,8,47,168,105,171,99,93,81,152,148,55,39,162,117,49,3,37,100,54,153,89,99,171,25,65,3,128,133,37,83,23,11,140,156,57,123,168,39,103,140,157,37,58,124,116"
dtnsim.node[16].app.size = "500,50,200,500,500,50,50,50,500,100,100,100,100,500,100,50,500,50,100,500,50,100,500,100,100,100,500,100,200,50,50,500,200,500,50,100,50,100,50,200,50,200,100,50,100,500,500,50,50,500,500,200,100,500,200,50,500,500,500,500,200,500,200,50,200,100,50,500,100,100,200,100,100,200,200,500,50,50,100,200,100,500,200,50,50,200,500,200,200,200,50,200,200,100,50,500,200,200,200,50"
# Node 17 random traffic
dtnsim.node[17].app.enable = true
dtnsim.node[17].app.bundlesNumber = "47,40,24,19,30,7,43,36,33,19,10,33,41,46,32,29,20,2,43,26,5,32,28,36,39,14,49,5,28,28,12,36,46,40,38,8,10,19,6,12,3,42,17,13,25,50,41,35,31,45,11,45,8,11,4,50,3,49,48,18,16,35,46,1,9,39,47,15,6,26,45,37,7,29,37,17,13,30,38,22,27,17,30,5,16,30,30,34,18,37,17,49,14,17,12,36,24,44,7,2"
dtnsim.node[17].app.start = "22,16,95,88,44,37,22,54,98,46,7,83,97,61,76,58,83,16,74,9,2,29,27,64,41,75,2,60,22,34,59,88,49,66,75,33,98,66,75,52,94,14,68,64,16,49,23,1,73,16,77,24,67,83,3,12,82,8,77,38,6,5,27,90,17,9,58,53,72,70,7,85,30,37,45,100,11,89,91,31,88,71,7,30,16,53,16,18,93,65,51,43,20,15,61,13,71,74,86,18"
dtnsim.node[17].app.destinationEid = "89,77,53,3,115,74,100,166,103,139,98,99,15,2,156,73,133,77,33,129,42,65,61,175,106,164,77,132,43,103,20,83,89,5,70,52,172,160,75,32,76,146,80,167,39,11,77,59,67,21,28,14,155,73,101,83,31,141,165,49,61,63,151,13,36,67,57,144,55,98,148,111,101,88,91,13,105,139,137,59,40,86,32,44,38,159,112,146,141,87,151,141,97,11,5,57,16,168,2,112"
dtnsim.node[17].app.size = "50,50,500,500,50,500,50,50,50,50,50,200,500,200,200,50,500,100,50,100,100,500,50,50,200,100,50,500,200,200,200,200,200,200,100,100,100,50,200,200,500,500,100,50,200,100,500,500,100,50,200,200,200,100,50,50,200,500,200,50,50,100,50,50,500,200,200,100,500,100,100,200,200,500,50,500,50,200,500,50,200,500,100,100,50,500,100,200,50,50,500,50,500,50,100,500,50,100,50,50"
# Node 18 random traffic
dtnsim.node[18].app.enable = true
dtnsim.node[18].app.bundlesNumber = "31,50,42,6,46,32,35,27,4,34,7,49,20,39,29,21,5,40,39,2,50,26,22,14,5,38,2,30,3,31,43,29,10,44,24,35,50,29,44,22,25,24,17,24,8,47,34,27,10,27,9,2,25,16,37,3,8,46,39,14,30,25,47,35,43,6,14,12,8,46,26,30,8,40,9,6,38,16,36,35,40,37,5,46,43,47,13,24,1,50,2,32,41,24,18,9,42,26,45,29"
dtnsim.node[18].app.start = "16,92,74,17,40,80,4,8,47,8,97,15,42,4,39,76,76,63,71,77,23,26,74,81,9,35,20,25,40,9,49,26,66,78,78,24,51,50,60,3,33,38,87,84,97,61,70,57,22,30,16,75,55,11,60,15,90,94,18,92,49,60,64,55,71,2,26,89,98,33,22,28,39,95,48,56,41,1,49,77,10,33,71,50,79,63,74,44,4,59,8,44,45,73,46,97,55,56,99,67"
dtnsim.node[18].app.destinationEid = "146,128,67,14,173,59,154,101,148,174,157,130,139,7,61,163,59,59,171,76,26,122,10,102,9,99,113,101,58,71,70,39,83,180,44,75,69,28,119,143,56,67,154,34,130,78,77,76,67,117,65,161,6,149,9,23,125,127,111,144,34,121,24,35,108,96,92,128,32,41,172,3,109,7,63,11,146,154,104,180,54,56,151,78,4,72,33,86,53,62,93,162,84,11,141,179,70,124,61,126"
dtnsim.node[18].app.size = "100,50,50,100,500,500,500,200,50,100,200,500,500,500,200,500,100,100,50,100,500,500,100,500,500,200,200,50,500,500,50,50,500,500,200,100,50,50,500,500,50,200,50,100,50,100,100,50,100,200,500,100,50,500,100,500,50,50,500,500,50,200,500,50,100,500,50,500,500,500,200,100,50,100,50,100,100,100,50,100,50,200,50,500,200,100,500,500,50,100,100,500,100,200,500,50,500,100,50,500"
# Node 19 random traffic
dtnsim.node[19].app.enable = true
dtnsim.node[19].app.bundlesNumber = "33,22,14,20,17,3,43,30,10,17,5,19,16,19,24,41,34,44,41,13,34,38,32,37,3,33,29,23,35,15,5,13,29,18,49,14,25,16,11,19,19,19,13,15,32,20,39,21,23,11,43,42,19,15,39,34,34,37,50,5,20,40,49,29,28,15,9,31,11,41,26,26,25,10,7,21,31,3,3,39,34,34,32,12,28,14,45,19,23,46,41,16,24,18,10,13,25,48,25,47"
dtnsim.node[19].app.start = "11,8,22,37,3,79,21,46,72,96,41,53,56,62,45,59,76,99,9,93,53,36,20,77,9,22,7,79,5,38,92,21,1,94,83,23,73,31,15,23,54,25,92,100,21,36,18,2,22,61,36,47,7,39,52,41,81,27,13,48,99,28,49,79,34,30,12,100,91,27,57,22,70,90,80,28,40,46,49,31,81,20,29,10,26,41,4,72,51,42,31,35,79,12,6,87,51,21,40,67"
dtnsim.node[19].app.destinationEid = "78,83,178,170,17,144,161,133,110,137,71,44,86,62,88,32,129,31,129,50,136,39,141,78,30,157,70,163,86,58,47,35,151,123,69,118,104,125,22,63,180,60,122,21,92,87,157,109,118,117,22,159,70,14,104,86,159,5,2,151,43,153,8,92,121,87,121,59,5,15,158,124,113,11,33,168,127,10,29,111,23,66,87,80,112,49,43,87,90,125,69,92,101,133,130,37,79,123,168,3"
dtnsim.node[19].app.size = "50,200,500,50,100,500,500,200,500,100,500,50,100,200,200,50,50,500,500,500,50,500,500,500,200,500,200,500,200,500,200,100,50,100,100,500,200,100,200,50,500,100,100,50,500,200,500,50,50,500,200,200,200,200,500,500,500,500,100,500,500,500,50,500,100,500,100,500,500,500,50,500,50,200,500,500,200,200,50,50,200,200,500,500,200,100,50,50,500,50,500,50,200,50,100,500,100,500,100,200"
# Node 20 random traffic
dtnsim.node[20].app.enable = true
dtnsim.node[20].app.bundlesNumber = "42,2,10,6,17,20,42,42,3,25,7,19,39,23,28,20,22,3,48,3,42,7,50,19,18,20,46,38,13,21,33,28,50,50,36,24,21,12,9,49,10,7,13,34,38,24,36,36,23,9,14,28,23,11,42,50,27,49,39,5,22,37,9,9,49,12,31,25,36,2,30,10,38,11,46,46,37,31,28,45,3,34,36,17,9,18,49,29,4,41,36,20,44,25,1,15,23,32,33,30"
dtnsim.node[20].app.start = "23,70,96,86,18,31,39,56,16,45,15,71,80,97,54,65,56,11,71,61,11,28,56,100,65,80,82,9,70,59,41,93,42,6,48,49,83,80,7,83,85,33,3,78,78,15,57,23,60,57,59,46,7,59,78,25,22,24,23,69,99,42,28,88,41,67,25,100,42,93,98,25,62,38,98,83,82,50,6,36,93,12,67,62,98,66,7,45,48,24,19,100,5,12,29,81,44,68,94,3"