[General]
network = src.csm
repeat = 1
allow-object-stealing-on-deletion = true

# Simulation end time
sim-time-limit = 200s

# Nodes quantity (identifiers (EiDs) matches their index, EiD=0 is ignored)
csm.nodesNumber = 120

# Mobility
csm.node[*].norad.satIndex = parentIndex()
csm.node[*].norad.satName = "sat"  #Doesnt matter in this instance
**.updateInterval = 20s
**.numOfSats = 120
**.satPerPlane = 10
**.altitude = 540
**.planes = 12
**.phaseOffset = 7
