[General]
network = src.csm
repeat = 1
allow-object-stealing-on-deletion = true

# Simulation end time
sim-time-limit = 84600s

# Nodes quantity (identifiers (EiDs) matches their index, EiD=0 is ignored)
csm.nodesNumber = 360

# Mobility
csm.node[*].norad.satIndex = parentIndex()
csm.node[*].norad.satName = "sat"  #Doesnt matter in this instance
**.updateInterval = 20s
**.numOfSats = 360
**.satPerPlane = 18
**.altitude = 540
**.planes = 20
**.phaseOffset = 11